<?xml version="1.0" encoding="UTF-8"?>

<vehicleDefinitions xmlns="http://www.matsim.org/files/dtd" xmlns:xsi="http://www.w3.org/2001/XMLSchema-instance" xsi:schemaLocation="http://www.matsim.org/files/dtd http://www.matsim.org/files/dtd/vehicleDefinitions_v1.0.xsd">
	<vehicleType id="bus">
		<capacity>
			<seats persons="60"/>
			<standingRoom persons="20"/>
		</capacity>
		<length meter="7.5"/>
		<width meter="1.0"/>
		<accessTime secondsPerPerson="1.0"/>
		<egressTime secondsPerPerson="1.0"/>
		<doorOperation mode="serial"/>
		<passengerCarEquivalents pce="3.0"/>
	</vehicleType>
	<vehicleType id="MTR">
		<capacity>
			<seats persons="50"/>
			<standingRoom persons="120"/>
		</capacity>
		<length meter="7.5"/>
		<width meter="1.0"/>
		<accessTime secondsPerPerson="1.0"/>
		<egressTime secondsPerPerson="1.0"/>
		<doorOperation mode="serial"/>
		<passengerCarEquivalents pce="1.0"/>
	</vehicleType>
	<vehicle id="From_1_to_4_bus1_0" type="bus"/>
	<vehicle id="From_4_to_1_bus1_0" type="bus"/>
	<vehicle id="From_1_to_4_bus1_600" type="bus"/>
	<vehicle id="From_4_to_1_bus1_600" type="bus"/>
	<vehicle id="From_1_to_4_bus1_1200" type="bus"/>
	<vehicle id="From_4_to_1_bus1_1200" type="bus"/>
	<vehicle id="From_1_to_4_bus1_1800" type="bus"/>
	<vehicle id="From_4_to_1_bus1_1800" type="bus"/>
	<vehicle id="From_1_to_4_bus1_2400" type="bus"/>
	<vehicle id="From_4_to_1_bus1_2400" type="bus"/>
	<vehicle id="From_1_to_4_bus1_3000" type="bus"/>
	<vehicle id="From_4_to_1_bus1_3000" type="bus"/>
	<vehicle id="From_1_to_4_bus1_3600" type="bus"/>
	<vehicle id="From_4_to_1_bus1_3600" type="bus"/>
	<vehicle id="From_1_to_4_bus1_4200" type="bus"/>
	<vehicle id="From_4_to_1_bus1_4200" type="bus"/>
	<vehicle id="From_1_to_4_bus1_4800" type="bus"/>
	<vehicle id="From_4_to_1_bus1_4800" type="bus"/>
	<vehicle id="From_1_to_4_bus1_5400" type="bus"/>
	<vehicle id="From_4_to_1_bus1_5400" type="bus"/>
	<vehicle id="From_1_to_4_bus1_6000" type="bus"/>
	<vehicle id="From_4_to_1_bus1_6000" type="bus"/>
	<vehicle id="From_1_to_4_bus1_6600" type="bus"/>
	<vehicle id="From_4_to_1_bus1_6600" type="bus"/>
	<vehicle id="From_1_to_4_bus1_7200" type="bus"/>
	<vehicle id="From_4_to_1_bus1_7200" type="bus"/>
	<vehicle id="From_1_to_4_bus1_7800" type="bus"/>
	<vehicle id="From_4_to_1_bus1_7800" type="bus"/>
	<vehicle id="From_1_to_4_bus1_8400" type="bus"/>
	<vehicle id="From_4_to_1_bus1_8400" type="bus"/>
	<vehicle id="From_1_to_4_bus1_9000" type="bus"/>
	<vehicle id="From_4_to_1_bus1_9000" type="bus"/>
	<vehicle id="From_1_to_4_bus1_9600" type="bus"/>
	<vehicle id="From_4_to_1_bus1_9600" type="bus"/>
	<vehicle id="From_1_to_4_bus1_10200" type="bus"/>
	<vehicle id="From_4_to_1_bus1_10200" type="bus"/>
	<vehicle id="From_1_to_4_bus1_10800" type="bus"/>
	<vehicle id="From_4_to_1_bus1_10800" type="bus"/>
	<vehicle id="From_1_to_4_bus1_11400" type="bus"/>
	<vehicle id="From_4_to_1_bus1_11400" type="bus"/>
	<vehicle id="From_1_to_4_bus1_12000" type="bus"/>
	<vehicle id="From_4_to_1_bus1_12000" type="bus"/>
	<vehicle id="From_1_to_4_bus1_12600" type="bus"/>
	<vehicle id="From_4_to_1_bus1_12600" type="bus"/>
	<vehicle id="From_1_to_4_bus1_13200" type="bus"/>
	<vehicle id="From_4_to_1_bus1_13200" type="bus"/>
	<vehicle id="From_1_to_4_bus1_13800" type="bus"/>
	<vehicle id="From_4_to_1_bus1_13800" type="bus"/>
	<vehicle id="From_1_to_4_bus1_14400" type="bus"/>
	<vehicle id="From_4_to_1_bus1_14400" type="bus"/>
	<vehicle id="From_1_to_4_bus1_15000" type="bus"/>
	<vehicle id="From_4_to_1_bus1_15000" type="bus"/>
	<vehicle id="From_1_to_4_bus1_15600" type="bus"/>
	<vehicle id="From_4_to_1_bus1_15600" type="bus"/>
	<vehicle id="From_1_to_4_bus1_16200" type="bus"/>
	<vehicle id="From_4_to_1_bus1_16200" type="bus"/>
	<vehicle id="From_1_to_4_bus1_16800" type="bus"/>
	<vehicle id="From_4_to_1_bus1_16800" type="bus"/>
	<vehicle id="From_1_to_4_bus1_17400" type="bus"/>
	<vehicle id="From_4_to_1_bus1_17400" type="bus"/>
	<vehicle id="From_1_to_4_bus1_18000" type="bus"/>
	<vehicle id="From_4_to_1_bus1_18000" type="bus"/>
	<vehicle id="From_1_to_4_bus1_18600" type="bus"/>
	<vehicle id="From_4_to_1_bus1_18600" type="bus"/>
	<vehicle id="From_1_to_4_bus1_19200" type="bus"/>
	<vehicle id="From_4_to_1_bus1_19200" type="bus"/>
	<vehicle id="From_1_to_4_bus1_19800" type="bus"/>
	<vehicle id="From_4_to_1_bus1_19800" type="bus"/>
	<vehicle id="From_1_to_4_bus1_20400" type="bus"/>
	<vehicle id="From_4_to_1_bus1_20400" type="bus"/>
	<vehicle id="From_1_to_4_bus1_21000" type="bus"/>
	<vehicle id="From_4_to_1_bus1_21000" type="bus"/>
	<vehicle id="From_1_to_4_bus1_21600" type="bus"/>
	<vehicle id="From_4_to_1_bus1_21600" type="bus"/>
	<vehicle id="From_1_to_4_bus1_22200" type="bus"/>
	<vehicle id="From_4_to_1_bus1_22200" type="bus"/>
	<vehicle id="From_1_to_4_bus1_22800" type="bus"/>
	<vehicle id="From_4_to_1_bus1_22800" type="bus"/>
	<vehicle id="From_1_to_4_bus1_23400" type="bus"/>
	<vehicle id="From_4_to_1_bus1_23400" type="bus"/>
	<vehicle id="From_1_to_4_bus1_24000" type="bus"/>
	<vehicle id="From_4_to_1_bus1_24000" type="bus"/>
	<vehicle id="From_1_to_4_bus1_24600" type="bus"/>
	<vehicle id="From_4_to_1_bus1_24600" type="bus"/>
	<vehicle id="From_1_to_4_bus1_25200" type="bus"/>
	<vehicle id="From_4_to_1_bus1_25200" type="bus"/>
	<vehicle id="From_1_to_4_bus1_25800" type="bus"/>
	<vehicle id="From_4_to_1_bus1_25800" type="bus"/>
	<vehicle id="From_1_to_4_bus1_26400" type="bus"/>
	<vehicle id="From_4_to_1_bus1_26400" type="bus"/>
	<vehicle id="From_1_to_4_bus1_27000" type="bus"/>
	<vehicle id="From_4_to_1_bus1_27000" type="bus"/>
	<vehicle id="From_1_to_4_bus1_27600" type="bus"/>
	<vehicle id="From_4_to_1_bus1_27600" type="bus"/>
	<vehicle id="From_1_to_4_bus1_28200" type="bus"/>
	<vehicle id="From_4_to_1_bus1_28200" type="bus"/>
	<vehicle id="From_1_to_4_bus1_28800" type="bus"/>
	<vehicle id="From_4_to_1_bus1_28800" type="bus"/>
	<vehicle id="From_1_to_4_bus1_29400" type="bus"/>
	<vehicle id="From_4_to_1_bus1_29400" type="bus"/>
	<vehicle id="From_1_to_4_bus1_30000" type="bus"/>
	<vehicle id="From_4_to_1_bus1_30000" type="bus"/>
	<vehicle id="From_1_to_4_bus1_30600" type="bus"/>
	<vehicle id="From_4_to_1_bus1_30600" type="bus"/>
	<vehicle id="From_1_to_4_bus1_31200" type="bus"/>
	<vehicle id="From_4_to_1_bus1_31200" type="bus"/>
	<vehicle id="From_1_to_4_bus1_31800" type="bus"/>
	<vehicle id="From_4_to_1_bus1_31800" type="bus"/>
	<vehicle id="From_1_to_4_bus1_32400" type="bus"/>
	<vehicle id="From_4_to_1_bus1_32400" type="bus"/>
	<vehicle id="From_1_to_4_bus1_33000" type="bus"/>
	<vehicle id="From_4_to_1_bus1_33000" type="bus"/>
	<vehicle id="From_1_to_4_bus1_33600" type="bus"/>
	<vehicle id="From_4_to_1_bus1_33600" type="bus"/>
	<vehicle id="From_1_to_4_bus1_34200" type="bus"/>
	<vehicle id="From_4_to_1_bus1_34200" type="bus"/>
	<vehicle id="From_1_to_4_bus1_34800" type="bus"/>
	<vehicle id="From_4_to_1_bus1_34800" type="bus"/>
	<vehicle id="From_1_to_4_bus1_35400" type="bus"/>
	<vehicle id="From_4_to_1_bus1_35400" type="bus"/>
	<vehicle id="From_1_to_4_bus1_36000" type="bus"/>
	<vehicle id="From_4_to_1_bus1_36000" type="bus"/>
	<vehicle id="From_1_to_4_bus1_36600" type="bus"/>
	<vehicle id="From_4_to_1_bus1_36600" type="bus"/>
	<vehicle id="From_1_to_4_bus1_37200" type="bus"/>
	<vehicle id="From_4_to_1_bus1_37200" type="bus"/>
	<vehicle id="From_1_to_4_bus1_37800" type="bus"/>
	<vehicle id="From_4_to_1_bus1_37800" type="bus"/>
	<vehicle id="From_1_to_4_bus1_38400" type="bus"/>
	<vehicle id="From_4_to_1_bus1_38400" type="bus"/>
	<vehicle id="From_1_to_4_bus1_39000" type="bus"/>
	<vehicle id="From_4_to_1_bus1_39000" type="bus"/>
	<vehicle id="From_1_to_4_bus1_39600" type="bus"/>
	<vehicle id="From_4_to_1_bus1_39600" type="bus"/>
	<vehicle id="From_1_to_4_bus1_40200" type="bus"/>
	<vehicle id="From_4_to_1_bus1_40200" type="bus"/>
	<vehicle id="From_1_to_4_bus1_40800" type="bus"/>
	<vehicle id="From_4_to_1_bus1_40800" type="bus"/>
	<vehicle id="From_1_to_4_bus1_41400" type="bus"/>
	<vehicle id="From_4_to_1_bus1_41400" type="bus"/>
	<vehicle id="From_1_to_4_bus1_42000" type="bus"/>
	<vehicle id="From_4_to_1_bus1_42000" type="bus"/>
	<vehicle id="From_1_to_4_bus1_42600" type="bus"/>
	<vehicle id="From_4_to_1_bus1_42600" type="bus"/>
	<vehicle id="From_1_to_4_bus1_43200" type="bus"/>
	<vehicle id="From_4_to_1_bus1_43200" type="bus"/>
	<vehicle id="From_1_to_4_bus1_43800" type="bus"/>
	<vehicle id="From_4_to_1_bus1_43800" type="bus"/>
	<vehicle id="From_1_to_4_bus1_44400" type="bus"/>
	<vehicle id="From_4_to_1_bus1_44400" type="bus"/>
	<vehicle id="From_1_to_4_bus1_45000" type="bus"/>
	<vehicle id="From_4_to_1_bus1_45000" type="bus"/>
	<vehicle id="From_1_to_4_bus1_45600" type="bus"/>
	<vehicle id="From_4_to_1_bus1_45600" type="bus"/>
	<vehicle id="From_1_to_4_bus1_46200" type="bus"/>
	<vehicle id="From_4_to_1_bus1_46200" type="bus"/>
	<vehicle id="From_1_to_4_bus1_46800" type="bus"/>
	<vehicle id="From_4_to_1_bus1_46800" type="bus"/>
	<vehicle id="From_1_to_4_bus1_47400" type="bus"/>
	<vehicle id="From_4_to_1_bus1_47400" type="bus"/>
	<vehicle id="From_1_to_4_bus1_48000" type="bus"/>
	<vehicle id="From_4_to_1_bus1_48000" type="bus"/>
	<vehicle id="From_1_to_4_bus1_48600" type="bus"/>
	<vehicle id="From_4_to_1_bus1_48600" type="bus"/>
	<vehicle id="From_1_to_4_bus1_49200" type="bus"/>
	<vehicle id="From_4_to_1_bus1_49200" type="bus"/>
	<vehicle id="From_1_to_4_bus1_49800" type="bus"/>
	<vehicle id="From_4_to_1_bus1_49800" type="bus"/>
	<vehicle id="From_1_to_4_bus1_50400" type="bus"/>
	<vehicle id="From_4_to_1_bus1_50400" type="bus"/>
	<vehicle id="From_1_to_4_bus1_51000" type="bus"/>
	<vehicle id="From_4_to_1_bus1_51000" type="bus"/>
	<vehicle id="From_1_to_4_bus1_51600" type="bus"/>
	<vehicle id="From_4_to_1_bus1_51600" type="bus"/>
	<vehicle id="From_1_to_4_bus1_52200" type="bus"/>
	<vehicle id="From_4_to_1_bus1_52200" type="bus"/>
	<vehicle id="From_1_to_4_bus1_52800" type="bus"/>
	<vehicle id="From_4_to_1_bus1_52800" type="bus"/>
	<vehicle id="From_1_to_4_bus1_53400" type="bus"/>
	<vehicle id="From_4_to_1_bus1_53400" type="bus"/>
	<vehicle id="From_1_to_4_bus1_54000" type="bus"/>
	<vehicle id="From_4_to_1_bus1_54000" type="bus"/>
	<vehicle id="From_1_to_4_bus1_54600" type="bus"/>
	<vehicle id="From_4_to_1_bus1_54600" type="bus"/>
	<vehicle id="From_1_to_4_bus1_55200" type="bus"/>
	<vehicle id="From_4_to_1_bus1_55200" type="bus"/>
	<vehicle id="From_1_to_4_bus1_55800" type="bus"/>
	<vehicle id="From_4_to_1_bus1_55800" type="bus"/>
	<vehicle id="From_1_to_4_bus1_56400" type="bus"/>
	<vehicle id="From_4_to_1_bus1_56400" type="bus"/>
	<vehicle id="From_1_to_4_bus1_57000" type="bus"/>
	<vehicle id="From_4_to_1_bus1_57000" type="bus"/>
	<vehicle id="From_1_to_4_bus1_57600" type="bus"/>
	<vehicle id="From_4_to_1_bus1_57600" type="bus"/>
	<vehicle id="From_1_to_4_bus1_58200" type="bus"/>
	<vehicle id="From_4_to_1_bus1_58200" type="bus"/>
	<vehicle id="From_1_to_4_bus1_58800" type="bus"/>
	<vehicle id="From_4_to_1_bus1_58800" type="bus"/>
	<vehicle id="From_1_to_4_bus1_59400" type="bus"/>
	<vehicle id="From_4_to_1_bus1_59400" type="bus"/>
	<vehicle id="From_1_to_4_bus1_60000" type="bus"/>
	<vehicle id="From_4_to_1_bus1_60000" type="bus"/>
	<vehicle id="From_1_to_4_bus1_60600" type="bus"/>
	<vehicle id="From_4_to_1_bus1_60600" type="bus"/>
	<vehicle id="From_1_to_4_bus1_61200" type="bus"/>
	<vehicle id="From_4_to_1_bus1_61200" type="bus"/>
	<vehicle id="From_1_to_4_bus1_61800" type="bus"/>
	<vehicle id="From_4_to_1_bus1_61800" type="bus"/>
	<vehicle id="From_1_to_4_bus1_62400" type="bus"/>
	<vehicle id="From_4_to_1_bus1_62400" type="bus"/>
	<vehicle id="From_1_to_4_bus1_63000" type="bus"/>
	<vehicle id="From_4_to_1_bus1_63000" type="bus"/>
	<vehicle id="From_1_to_4_bus1_63600" type="bus"/>
	<vehicle id="From_4_to_1_bus1_63600" type="bus"/>
	<vehicle id="From_1_to_4_bus1_64200" type="bus"/>
	<vehicle id="From_4_to_1_bus1_64200" type="bus"/>
	<vehicle id="From_1_to_4_bus1_64800" type="bus"/>
	<vehicle id="From_4_to_1_bus1_64800" type="bus"/>
	<vehicle id="From_1_to_4_bus1_65400" type="bus"/>
	<vehicle id="From_4_to_1_bus1_65400" type="bus"/>
	<vehicle id="From_1_to_4_bus1_66000" type="bus"/>
	<vehicle id="From_4_to_1_bus1_66000" type="bus"/>
	<vehicle id="From_1_to_4_bus1_66600" type="bus"/>
	<vehicle id="From_4_to_1_bus1_66600" type="bus"/>
	<vehicle id="From_1_to_4_bus1_67200" type="bus"/>
	<vehicle id="From_4_to_1_bus1_67200" type="bus"/>
	<vehicle id="From_1_to_4_bus1_67800" type="bus"/>
	<vehicle id="From_4_to_1_bus1_67800" type="bus"/>
	<vehicle id="From_1_to_4_bus1_68400" type="bus"/>
	<vehicle id="From_4_to_1_bus1_68400" type="bus"/>
	<vehicle id="From_1_to_4_bus1_69000" type="bus"/>
	<vehicle id="From_4_to_1_bus1_69000" type="bus"/>
	<vehicle id="From_1_to_4_bus1_69600" type="bus"/>
	<vehicle id="From_4_to_1_bus1_69600" type="bus"/>
	<vehicle id="From_1_to_4_bus1_70200" type="bus"/>
	<vehicle id="From_4_to_1_bus1_70200" type="bus"/>
	<vehicle id="From_1_to_4_bus1_70800" type="bus"/>
	<vehicle id="From_4_to_1_bus1_70800" type="bus"/>
	<vehicle id="From_1_to_4_bus1_71400" type="bus"/>
	<vehicle id="From_4_to_1_bus1_71400" type="bus"/>
	<vehicle id="From_1_to_4_bus1_72000" type="bus"/>
	<vehicle id="From_4_to_1_bus1_72000" type="bus"/>
	<vehicle id="From_1_to_4_bus1_72600" type="bus"/>
	<vehicle id="From_4_to_1_bus1_72600" type="bus"/>
	<vehicle id="From_1_to_4_bus1_73200" type="bus"/>
	<vehicle id="From_4_to_1_bus1_73200" type="bus"/>
	<vehicle id="From_1_to_4_bus1_73800" type="bus"/>
	<vehicle id="From_4_to_1_bus1_73800" type="bus"/>
	<vehicle id="From_1_to_4_bus1_74400" type="bus"/>
	<vehicle id="From_4_to_1_bus1_74400" type="bus"/>
	<vehicle id="From_1_to_4_bus1_75000" type="bus"/>
	<vehicle id="From_4_to_1_bus1_75000" type="bus"/>
	<vehicle id="From_1_to_4_bus1_75600" type="bus"/>
	<vehicle id="From_4_to_1_bus1_75600" type="bus"/>
	<vehicle id="From_1_to_4_bus1_76200" type="bus"/>
	<vehicle id="From_4_to_1_bus1_76200" type="bus"/>
	<vehicle id="From_1_to_4_bus1_76800" type="bus"/>
	<vehicle id="From_4_to_1_bus1_76800" type="bus"/>
	<vehicle id="From_1_to_4_bus1_77400" type="bus"/>
	<vehicle id="From_4_to_1_bus1_77400" type="bus"/>
	<vehicle id="From_1_to_4_bus1_78000" type="bus"/>
	<vehicle id="From_4_to_1_bus1_78000" type="bus"/>
	<vehicle id="From_1_to_4_bus1_78600" type="bus"/>
	<vehicle id="From_4_to_1_bus1_78600" type="bus"/>
	<vehicle id="From_1_to_4_bus1_79200" type="bus"/>
	<vehicle id="From_4_to_1_bus1_79200" type="bus"/>
	<vehicle id="From_1_to_4_bus1_79800" type="bus"/>
	<vehicle id="From_4_to_1_bus1_79800" type="bus"/>
	<vehicle id="From_1_to_4_bus1_80400" type="bus"/>
	<vehicle id="From_4_to_1_bus1_80400" type="bus"/>
	<vehicle id="From_1_to_4_bus1_81000" type="bus"/>
	<vehicle id="From_4_to_1_bus1_81000" type="bus"/>
	<vehicle id="From_1_to_4_bus1_81600" type="bus"/>
	<vehicle id="From_4_to_1_bus1_81600" type="bus"/>
	<vehicle id="From_1_to_4_bus1_82200" type="bus"/>
	<vehicle id="From_4_to_1_bus1_82200" type="bus"/>
	<vehicle id="From_1_to_4_bus1_82800" type="bus"/>
	<vehicle id="From_4_to_1_bus1_82800" type="bus"/>
	<vehicle id="From_1_to_4_bus1_83400" type="bus"/>
	<vehicle id="From_4_to_1_bus1_83400" type="bus"/>
	<vehicle id="From_1_to_4_bus1_84000" type="bus"/>
	<vehicle id="From_4_to_1_bus1_84000" type="bus"/>
	<vehicle id="From_1_to_4_bus1_84600" type="bus"/>
	<vehicle id="From_4_to_1_bus1_84600" type="bus"/>
	<vehicle id="From_1_to_4_bus1_85200" type="bus"/>
	<vehicle id="From_4_to_1_bus1_85200" type="bus"/>
	<vehicle id="From_1_to_4_bus1_85800" type="bus"/>
	<vehicle id="From_4_to_1_bus1_85800" type="bus"/>
	<vehicle id="From_2_to_3_bus2_0" type="bus"/>
	<vehicle id="From_3_to_2_bus2_0" type="bus"/>
	<vehicle id="From_2_to_3_bus2_900" type="bus"/>
	<vehicle id="From_3_to_2_bus2_900" type="bus"/>
	<vehicle id="From_2_to_3_bus2_1800" type="bus"/>
	<vehicle id="From_3_to_2_bus2_1800" type="bus"/>
	<vehicle id="From_2_to_3_bus2_2700" type="bus"/>
	<vehicle id="From_3_to_2_bus2_2700" type="bus"/>
	<vehicle id="From_2_to_3_bus2_3600" type="bus"/>
	<vehicle id="From_3_to_2_bus2_3600" type="bus"/>
	<vehicle id="From_2_to_3_bus2_4500" type="bus"/>
	<vehicle id="From_3_to_2_bus2_4500" type="bus"/>
	<vehicle id="From_2_to_3_bus2_5400" type="bus"/>
	<vehicle id="From_3_to_2_bus2_5400" type="bus"/>
	<vehicle id="From_2_to_3_bus2_6300" type="bus"/>
	<vehicle id="From_3_to_2_bus2_6300" type="bus"/>
	<vehicle id="From_2_to_3_bus2_7200" type="bus"/>
	<vehicle id="From_3_to_2_bus2_7200" type="bus"/>
	<vehicle id="From_2_to_3_bus2_8100" type="bus"/>
	<vehicle id="From_3_to_2_bus2_8100" type="bus"/>
	<vehicle id="From_2_to_3_bus2_9000" type="bus"/>
	<vehicle id="From_3_to_2_bus2_9000" type="bus"/>
	<vehicle id="From_2_to_3_bus2_9900" type="bus"/>
	<vehicle id="From_3_to_2_bus2_9900" type="bus"/>
	<vehicle id="From_2_to_3_bus2_10800" type="bus"/>
	<vehicle id="From_3_to_2_bus2_10800" type="bus"/>
	<vehicle id="From_2_to_3_bus2_11700" type="bus"/>
	<vehicle id="From_3_to_2_bus2_11700" type="bus"/>
	<vehicle id="From_2_to_3_bus2_12600" type="bus"/>
	<vehicle id="From_3_to_2_bus2_12600" type="bus"/>
	<vehicle id="From_2_to_3_bus2_13500" type="bus"/>
	<vehicle id="From_3_to_2_bus2_13500" type="bus"/>
	<vehicle id="From_2_to_3_bus2_14400" type="bus"/>
	<vehicle id="From_3_to_2_bus2_14400" type="bus"/>
	<vehicle id="From_2_to_3_bus2_15300" type="bus"/>
	<vehicle id="From_3_to_2_bus2_15300" type="bus"/>
	<vehicle id="From_2_to_3_bus2_16200" type="bus"/>
	<vehicle id="From_3_to_2_bus2_16200" type="bus"/>
	<vehicle id="From_2_to_3_bus2_17100" type="bus"/>
	<vehicle id="From_3_to_2_bus2_17100" type="bus"/>
	<vehicle id="From_2_to_3_bus2_18000" type="bus"/>
	<vehicle id="From_3_to_2_bus2_18000" type="bus"/>
	<vehicle id="From_2_to_3_bus2_18900" type="bus"/>
	<vehicle id="From_3_to_2_bus2_18900" type="bus"/>
	<vehicle id="From_2_to_3_bus2_19800" type="bus"/>
	<vehicle id="From_3_to_2_bus2_19800" type="bus"/>
	<vehicle id="From_2_to_3_bus2_20700" type="bus"/>
	<vehicle id="From_3_to_2_bus2_20700" type="bus"/>
	<vehicle id="From_2_to_3_bus2_21600" type="bus"/>
	<vehicle id="From_3_to_2_bus2_21600" type="bus"/>
	<vehicle id="From_2_to_3_bus2_22500" type="bus"/>
	<vehicle id="From_3_to_2_bus2_22500" type="bus"/>
	<vehicle id="From_2_to_3_bus2_23400" type="bus"/>
	<vehicle id="From_3_to_2_bus2_23400" type="bus"/>
	<vehicle id="From_2_to_3_bus2_24300" type="bus"/>
	<vehicle id="From_3_to_2_bus2_24300" type="bus"/>
	<vehicle id="From_2_to_3_bus2_25200" type="bus"/>
	<vehicle id="From_3_to_2_bus2_25200" type="bus"/>
	<vehicle id="From_2_to_3_bus2_26100" type="bus"/>
	<vehicle id="From_3_to_2_bus2_26100" type="bus"/>
	<vehicle id="From_2_to_3_bus2_27000" type="bus"/>
	<vehicle id="From_3_to_2_bus2_27000" type="bus"/>
	<vehicle id="From_2_to_3_bus2_27900" type="bus"/>
	<vehicle id="From_3_to_2_bus2_27900" type="bus"/>
	<vehicle id="From_2_to_3_bus2_28800" type="bus"/>
	<vehicle id="From_3_to_2_bus2_28800" type="bus"/>
	<vehicle id="From_2_to_3_bus2_29700" type="bus"/>
	<vehicle id="From_3_to_2_bus2_29700" type="bus"/>
	<vehicle id="From_2_to_3_bus2_30600" type="bus"/>
	<vehicle id="From_3_to_2_bus2_30600" type="bus"/>
	<vehicle id="From_2_to_3_bus2_31500" type="bus"/>
	<vehicle id="From_3_to_2_bus2_31500" type="bus"/>
	<vehicle id="From_2_to_3_bus2_32400" type="bus"/>
	<vehicle id="From_3_to_2_bus2_32400" type="bus"/>
	<vehicle id="From_2_to_3_bus2_33300" type="bus"/>
	<vehicle id="From_3_to_2_bus2_33300" type="bus"/>
	<vehicle id="From_2_to_3_bus2_34200" type="bus"/>
	<vehicle id="From_3_to_2_bus2_34200" type="bus"/>
	<vehicle id="From_2_to_3_bus2_35100" type="bus"/>
	<vehicle id="From_3_to_2_bus2_35100" type="bus"/>
	<vehicle id="From_2_to_3_bus2_36000" type="bus"/>
	<vehicle id="From_3_to_2_bus2_36000" type="bus"/>
	<vehicle id="From_2_to_3_bus2_36900" type="bus"/>
	<vehicle id="From_3_to_2_bus2_36900" type="bus"/>
	<vehicle id="From_2_to_3_bus2_37800" type="bus"/>
	<vehicle id="From_3_to_2_bus2_37800" type="bus"/>
	<vehicle id="From_2_to_3_bus2_38700" type="bus"/>
	<vehicle id="From_3_to_2_bus2_38700" type="bus"/>
	<vehicle id="From_2_to_3_bus2_39600" type="bus"/>
	<vehicle id="From_3_to_2_bus2_39600" type="bus"/>
	<vehicle id="From_2_to_3_bus2_40500" type="bus"/>
	<vehicle id="From_3_to_2_bus2_40500" type="bus"/>
	<vehicle id="From_2_to_3_bus2_41400" type="bus"/>
	<vehicle id="From_3_to_2_bus2_41400" type="bus"/>
	<vehicle id="From_2_to_3_bus2_42300" type="bus"/>
	<vehicle id="From_3_to_2_bus2_42300" type="bus"/>
	<vehicle id="From_2_to_3_bus2_43200" type="bus"/>
	<vehicle id="From_3_to_2_bus2_43200" type="bus"/>
	<vehicle id="From_2_to_3_bus2_44100" type="bus"/>
	<vehicle id="From_3_to_2_bus2_44100" type="bus"/>
	<vehicle id="From_2_to_3_bus2_45000" type="bus"/>
	<vehicle id="From_3_to_2_bus2_45000" type="bus"/>
	<vehicle id="From_2_to_3_bus2_45900" type="bus"/>
	<vehicle id="From_3_to_2_bus2_45900" type="bus"/>
	<vehicle id="From_2_to_3_bus2_46800" type="bus"/>
	<vehicle id="From_3_to_2_bus2_46800" type="bus"/>
	<vehicle id="From_2_to_3_bus2_47700" type="bus"/>
	<vehicle id="From_3_to_2_bus2_47700" type="bus"/>
	<vehicle id="From_2_to_3_bus2_48600" type="bus"/>
	<vehicle id="From_3_to_2_bus2_48600" type="bus"/>
	<vehicle id="From_2_to_3_bus2_49500" type="bus"/>
	<vehicle id="From_3_to_2_bus2_49500" type="bus"/>
	<vehicle id="From_2_to_3_bus2_50400" type="bus"/>
	<vehicle id="From_3_to_2_bus2_50400" type="bus"/>
	<vehicle id="From_2_to_3_bus2_51300" type="bus"/>
	<vehicle id="From_3_to_2_bus2_51300" type="bus"/>
	<vehicle id="From_2_to_3_bus2_52200" type="bus"/>
	<vehicle id="From_3_to_2_bus2_52200" type="bus"/>
	<vehicle id="From_2_to_3_bus2_53100" type="bus"/>
	<vehicle id="From_3_to_2_bus2_53100" type="bus"/>
	<vehicle id="From_2_to_3_bus2_54000" type="bus"/>
	<vehicle id="From_3_to_2_bus2_54000" type="bus"/>
	<vehicle id="From_2_to_3_bus2_54900" type="bus"/>
	<vehicle id="From_3_to_2_bus2_54900" type="bus"/>
	<vehicle id="From_2_to_3_bus2_55800" type="bus"/>
	<vehicle id="From_3_to_2_bus2_55800" type="bus"/>
	<vehicle id="From_2_to_3_bus2_56700" type="bus"/>
	<vehicle id="From_3_to_2_bus2_56700" type="bus"/>
	<vehicle id="From_2_to_3_bus2_57600" type="bus"/>
	<vehicle id="From_3_to_2_bus2_57600" type="bus"/>
	<vehicle id="From_2_to_3_bus2_58500" type="bus"/>
	<vehicle id="From_3_to_2_bus2_58500" type="bus"/>
	<vehicle id="From_2_to_3_bus2_59400" type="bus"/>
	<vehicle id="From_3_to_2_bus2_59400" type="bus"/>
	<vehicle id="From_2_to_3_bus2_60300" type="bus"/>
	<vehicle id="From_3_to_2_bus2_60300" type="bus"/>
	<vehicle id="From_2_to_3_bus2_61200" type="bus"/>
	<vehicle id="From_3_to_2_bus2_61200" type="bus"/>
	<vehicle id="From_2_to_3_bus2_62100" type="bus"/>
	<vehicle id="From_3_to_2_bus2_62100" type="bus"/>
	<vehicle id="From_2_to_3_bus2_63000" type="bus"/>
	<vehicle id="From_3_to_2_bus2_63000" type="bus"/>
	<vehicle id="From_2_to_3_bus2_63900" type="bus"/>
	<vehicle id="From_3_to_2_bus2_63900" type="bus"/>
	<vehicle id="From_2_to_3_bus2_64800" type="bus"/>
	<vehicle id="From_3_to_2_bus2_64800" type="bus"/>
	<vehicle id="From_2_to_3_bus2_65700" type="bus"/>
	<vehicle id="From_3_to_2_bus2_65700" type="bus"/>
	<vehicle id="From_2_to_3_bus2_66600" type="bus"/>
	<vehicle id="From_3_to_2_bus2_66600" type="bus"/>
	<vehicle id="From_2_to_3_bus2_67500" type="bus"/>
	<vehicle id="From_3_to_2_bus2_67500" type="bus"/>
	<vehicle id="From_2_to_3_bus2_68400" type="bus"/>
	<vehicle id="From_3_to_2_bus2_68400" type="bus"/>
	<vehicle id="From_2_to_3_bus2_69300" type="bus"/>
	<vehicle id="From_3_to_2_bus2_69300" type="bus"/>
	<vehicle id="From_2_to_3_bus2_70200" type="bus"/>
	<vehicle id="From_3_to_2_bus2_70200" type="bus"/>
	<vehicle id="From_2_to_3_bus2_71100" type="bus"/>
	<vehicle id="From_3_to_2_bus2_71100" type="bus"/>
	<vehicle id="From_2_to_3_bus2_72000" type="bus"/>
	<vehicle id="From_3_to_2_bus2_72000" type="bus"/>
	<vehicle id="From_2_to_3_bus2_72900" type="bus"/>
	<vehicle id="From_3_to_2_bus2_72900" type="bus"/>
	<vehicle id="From_2_to_3_bus2_73800" type="bus"/>
	<vehicle id="From_3_to_2_bus2_73800" type="bus"/>
	<vehicle id="From_2_to_3_bus2_74700" type="bus"/>
	<vehicle id="From_3_to_2_bus2_74700" type="bus"/>
	<vehicle id="From_2_to_3_bus2_75600" type="bus"/>
	<vehicle id="From_3_to_2_bus2_75600" type="bus"/>
	<vehicle id="From_2_to_3_bus2_76500" type="bus"/>
	<vehicle id="From_3_to_2_bus2_76500" type="bus"/>
	<vehicle id="From_2_to_3_bus2_77400" type="bus"/>
	<vehicle id="From_3_to_2_bus2_77400" type="bus"/>
	<vehicle id="From_2_to_3_bus2_78300" type="bus"/>
	<vehicle id="From_3_to_2_bus2_78300" type="bus"/>
	<vehicle id="From_2_to_3_bus2_79200" type="bus"/>
	<vehicle id="From_3_to_2_bus2_79200" type="bus"/>
	<vehicle id="From_2_to_3_bus2_80100" type="bus"/>
	<vehicle id="From_3_to_2_bus2_80100" type="bus"/>
	<vehicle id="From_2_to_3_bus2_81000" type="bus"/>
	<vehicle id="From_3_to_2_bus2_81000" type="bus"/>
	<vehicle id="From_2_to_3_bus2_81900" type="bus"/>
	<vehicle id="From_3_to_2_bus2_81900" type="bus"/>
	<vehicle id="From_2_to_3_bus2_82800" type="bus"/>
	<vehicle id="From_3_to_2_bus2_82800" type="bus"/>
	<vehicle id="From_2_to_3_bus2_83700" type="bus"/>
	<vehicle id="From_3_to_2_bus2_83700" type="bus"/>
	<vehicle id="From_2_to_3_bus2_84600" type="bus"/>
	<vehicle id="From_3_to_2_bus2_84600" type="bus"/>
	<vehicle id="From_2_to_3_bus2_85500" type="bus"/>
	<vehicle id="From_3_to_2_bus2_85500" type="bus"/>
	<vehicle id="From_1_to_4_MTR1_0" type="MTR"/>
	<vehicle id="From_4_to_1_MTR1_0" type="MTR"/>
	<vehicle id="From_1_to_4_MTR1_360" type="MTR"/>
	<vehicle id="From_4_to_1_MTR1_360" type="MTR"/>
	<vehicle id="From_1_to_4_MTR1_720" type="MTR"/>
	<vehicle id="From_4_to_1_MTR1_720" type="MTR"/>
	<vehicle id="From_1_to_4_MTR1_1080" type="MTR"/>
	<vehicle id="From_4_to_1_MTR1_1080" type="MTR"/>
	<vehicle id="From_1_to_4_MTR1_1440" type="MTR"/>
	<vehicle id="From_4_to_1_MTR1_1440" type="MTR"/>
	<vehicle id="From_1_to_4_MTR1_1800" type="MTR"/>
	<vehicle id="From_4_to_1_MTR1_1800" type="MTR"/>
	<vehicle id="From_1_to_4_MTR1_2160" type="MTR"/>
	<vehicle id="From_4_to_1_MTR1_2160" type="MTR"/>
	<vehicle id="From_1_to_4_MTR1_2520" type="MTR"/>
	<vehicle id="From_4_to_1_MTR1_2520" type="MTR"/>
	<vehicle id="From_1_to_4_MTR1_2880" type="MTR"/>
	<vehicle id="From_4_to_1_MTR1_2880" type="MTR"/>
	<vehicle id="From_1_to_4_MTR1_3240" type="MTR"/>
	<vehicle id="From_4_to_1_MTR1_3240" type="MTR"/>
	<vehicle id="From_1_to_4_MTR1_3600" type="MTR"/>
	<vehicle id="From_4_to_1_MTR1_3600" type="MTR"/>
	<vehicle id="From_1_to_4_MTR1_3960" type="MTR"/>
	<vehicle id="From_4_to_1_MTR1_3960" type="MTR"/>
	<vehicle id="From_1_to_4_MTR1_4320" type="MTR"/>
	<vehicle id="From_4_to_1_MTR1_4320" type="MTR"/>
	<vehicle id="From_1_to_4_MTR1_4680" type="MTR"/>
	<vehicle id="From_4_to_1_MTR1_4680" type="MTR"/>
	<vehicle id="From_1_to_4_MTR1_5040" type="MTR"/>
	<vehicle id="From_4_to_1_MTR1_5040" type="MTR"/>
	<vehicle id="From_1_to_4_MTR1_5400" type="MTR"/>
	<vehicle id="From_4_to_1_MTR1_5400" type="MTR"/>
	<vehicle id="From_1_to_4_MTR1_5760" type="MTR"/>
	<vehicle id="From_4_to_1_MTR1_5760" type="MTR"/>
	<vehicle id="From_1_to_4_MTR1_6120" type="MTR"/>
	<vehicle id="From_4_to_1_MTR1_6120" type="MTR"/>
	<vehicle id="From_1_to_4_MTR1_6480" type="MTR"/>
	<vehicle id="From_4_to_1_MTR1_6480" type="MTR"/>
	<vehicle id="From_1_to_4_MTR1_6840" type="MTR"/>
	<vehicle id="From_4_to_1_MTR1_6840" type="MTR"/>
	<vehicle id="From_1_to_4_MTR1_7200" type="MTR"/>
	<vehicle id="From_4_to_1_MTR1_7200" type="MTR"/>
	<vehicle id="From_1_to_4_MTR1_7560" type="MTR"/>
	<vehicle id="From_4_to_1_MTR1_7560" type="MTR"/>
	<vehicle id="From_1_to_4_MTR1_7920" type="MTR"/>
	<vehicle id="From_4_to_1_MTR1_7920" type="MTR"/>
	<vehicle id="From_1_to_4_MTR1_8280" type="MTR"/>
	<vehicle id="From_4_to_1_MTR1_8280" type="MTR"/>
	<vehicle id="From_1_to_4_MTR1_8640" type="MTR"/>
	<vehicle id="From_4_to_1_MTR1_8640" type="MTR"/>
	<vehicle id="From_1_to_4_MTR1_9000" type="MTR"/>
	<vehicle id="From_4_to_1_MTR1_9000" type="MTR"/>
	<vehicle id="From_1_to_4_MTR1_9360" type="MTR"/>
	<vehicle id="From_4_to_1_MTR1_9360" type="MTR"/>
	<vehicle id="From_1_to_4_MTR1_9720" type="MTR"/>
	<vehicle id="From_4_to_1_MTR1_9720" type="MTR"/>
	<vehicle id="From_1_to_4_MTR1_10080" type="MTR"/>
	<vehicle id="From_4_to_1_MTR1_10080" type="MTR"/>
	<vehicle id="From_1_to_4_MTR1_10440" type="MTR"/>
	<vehicle id="From_4_to_1_MTR1_10440" type="MTR"/>
	<vehicle id="From_1_to_4_MTR1_10800" type="MTR"/>
	<vehicle id="From_4_to_1_MTR1_10800" type="MTR"/>
	<vehicle id="From_1_to_4_MTR1_11160" type="MTR"/>
	<vehicle id="From_4_to_1_MTR1_11160" type="MTR"/>
	<vehicle id="From_1_to_4_MTR1_11520" type="MTR"/>
	<vehicle id="From_4_to_1_MTR1_11520" type="MTR"/>
	<vehicle id="From_1_to_4_MTR1_11880" type="MTR"/>
	<vehicle id="From_4_to_1_MTR1_11880" type="MTR"/>
	<vehicle id="From_1_to_4_MTR1_12240" type="MTR"/>
	<vehicle id="From_4_to_1_MTR1_12240" type="MTR"/>
	<vehicle id="From_1_to_4_MTR1_12600" type="MTR"/>
	<vehicle id="From_4_to_1_MTR1_12600" type="MTR"/>
	<vehicle id="From_1_to_4_MTR1_12960" type="MTR"/>
	<vehicle id="From_4_to_1_MTR1_12960" type="MTR"/>
	<vehicle id="From_1_to_4_MTR1_13320" type="MTR"/>
	<vehicle id="From_4_to_1_MTR1_13320" type="MTR"/>
	<vehicle id="From_1_to_4_MTR1_13680" type="MTR"/>
	<vehicle id="From_4_to_1_MTR1_13680" type="MTR"/>
	<vehicle id="From_1_to_4_MTR1_14040" type="MTR"/>
	<vehicle id="From_4_to_1_MTR1_14040" type="MTR"/>
	<vehicle id="From_1_to_4_MTR1_14400" type="MTR"/>
	<vehicle id="From_4_to_1_MTR1_14400" type="MTR"/>
	<vehicle id="From_1_to_4_MTR1_14760" type="MTR"/>
	<vehicle id="From_4_to_1_MTR1_14760" type="MTR"/>
	<vehicle id="From_1_to_4_MTR1_15120" type="MTR"/>
	<vehicle id="From_4_to_1_MTR1_15120" type="MTR"/>
	<vehicle id="From_1_to_4_MTR1_15480" type="MTR"/>
	<vehicle id="From_4_to_1_MTR1_15480" type="MTR"/>
	<vehicle id="From_1_to_4_MTR1_15840" type="MTR"/>
	<vehicle id="From_4_to_1_MTR1_15840" type="MTR"/>
	<vehicle id="From_1_to_4_MTR1_16200" type="MTR"/>
	<vehicle id="From_4_to_1_MTR1_16200" type="MTR"/>
	<vehicle id="From_1_to_4_MTR1_16560" type="MTR"/>