<?xml version="1.0" encoding="UTF-8"?>
<!DOCTYPE transitSchedule SYSTEM "http://www.matsim.org/files/dtd/transitSchedule_v2.dtd">

<transitSchedule>

	<transitStops>
		<stopFacility id="1_1rAAA_stop" x="10.0" y="20000.0" linkRefId="1_1r_stop" name="Station1" isBlocking="false"/>
		<stopFacility id="1_1rAAA_stop_train" x="10.0" y="20000.0" linkRefId="1_1r_stop_train" name="Station1_train" isBlocking="false"/>
		<stopFacility id="1r_1AAA_stop" x="10.0" y="20000.0" linkRefId="1r_1_stop" name="Station1" isBlocking="false"/>
		<stopFacility id="1r_1AAA_stop_train" x="10.0" y="20000.0" linkRefId="1r_1_stop_train" name="Station1_train" isBlocking="false"/>
		<stopFacility id="2_2rBBB_stop" x="10010.0" y="20000.0" linkRefId="2_2r_stop" name="Station2" isBlocking="false"/>
		<stopFacility id="2_2rBBB_stop_train" x="10010.0" y="20000.0" linkRefId="2_2r_stop_train" name="Station2_train" isBlocking="false"/>
		<stopFacility id="2r_2BBB_stop" x="10010.0" y="20000.0" linkRefId="2r_2_stop" name="Station2" isBlocking="false"/>
		<stopFacility id="2r_2BBB_stop_train" x="10010.0" y="20000.0" linkRefId="2r_2_stop_train" name="Station2_train" isBlocking="false"/>
		<stopFacility id="3_3rCCC_stop" x="20010.0" y="20000.0" linkRefId="3_3r_stop" name="Station3" isBlocking="false"/>
		<stopFacility id="3_3rCCC_stop_train" x="20010.0" y="20000.0" linkRefId="3_3r_stop_train" name="Station3_train" isBlocking="false"/>
		<stopFacility id="3r_3CCC_stop" x="20010.0" y="20000.0" linkRefId="3r_3_stop" name="Station3" isBlocking="false"/>
		<stopFacility id="3r_3CCC_stop_train" x="20010.0" y="20000.0" linkRefId="3r_3_stop_train" name="Station3_train" isBlocking="false"/>
		<stopFacility id="4_4rDDD_stop" x="30010.0" y="20000.0" linkRefId="4_4r_stop" name="Station4" isBlocking="false"/>
		<stopFacility id="4_4rDDD_stop_train" x="30010.0" y="20000.0" linkRefId="4_4r_stop_train" name="Station4_train" isBlocking="false"/>
		<stopFacility id="4r_4DDD_stop" x="30010.0" y="20000.0" linkRefId="4r_4_stop" name="Station4" isBlocking="false"/>
		<stopFacility id="4r_4DDD_stop_train" x="30010.0" y="20000.0" linkRefId="4r_4_stop_train" name="Station4_train" isBlocking="false"/>
		<stopFacility id="5_5rEEE_stop" x="10010.0" y="10000.0" linkRefId="5_5r_stop" name="Station5" isBlocking="false"/>
		<stopFacility id="5_5rEEE_stop_train" x="10010.0" y="10000.0" linkRefId="5_5r_stop_train" name="Station5_train" isBlocking="false"/>
		<stopFacility id="5r_5EEE_stop" x="10010.0" y="10000.0" linkRefId="5r_5_stop" name="Station5" isBlocking="false"/>
		<stopFacility id="5r_5EEE_stop_train" x="10010.0" y="10000.0" linkRefId="5r_5_stop_train" name="Station5_train" isBlocking="false"/>
		<stopFacility id="6_6rFFF_stop" x="20010.0" y="10000.0" linkRefId="6_6r_stop" name="Station6" isBlocking="false"/>
		<stopFacility id="6_6rFFF_stop_train" x="20010.0" y="10000.0" linkRefId="6_6r_stop_train" name="Station6_train" isBlocking="false"/>
		<stopFacility id="6r_6FFF_stop" x="20010.0" y="10000.0" linkRefId="6r_6_stop" name="Station6" isBlocking="false"/>
		<stopFacility id="6r_6FFF_stop_train" x="20010.0" y="10000.0" linkRefId="6r_6_stop_train" name="Station6_train" isBlocking="false"/>
		<stopFacility id="7_7rGGG_stop" x="15010.0" y="0.0" linkRefId="7_7r_stop" name="Station7" isBlocking="false"/>
		<stopFacility id="7_7rGGG_stop_train" x="15010.0" y="0.0" linkRefId="7_7r_stop_train" name="Station7_train" isBlocking="false"/>
		<stopFacility id="7r_7GGG_stop" x="15010.0" y="0.0" linkRefId="7r_7_stop" name="Station7" isBlocking="false"/>
		<stopFacility id="7r_7GGG_stop_train" x="15010.0" y="0.0" linkRefId="7r_7_stop_train" name="Station7_train" isBlocking="false"/>
	</transitStops>
	<transitLine id="MTR1">
		<transitRoute id="From_1_to_4_MTR1">
			<transportMode>train</transportMode>
			<routeProfile>
				<stop refId="1_1rAAA_stop_train" arrivalOffset="00:00:00" departureOffset="00:00:30" awaitDeparture="false"/>
				<stop refId="5_5rEEE_stop_train" arrivalOffset="00:10:30" departureOffset="00:11:00" awaitDeparture="false"/>
				<stop refId="6_6rFFF_stop_train" arrivalOffset="00:21:00" departureOffset="00:21:30" awaitDeparture="false"/>
				<stop refId="4_4rDDD_stop_train" arrivalOffset="00:31:30" departureOffset="00:32:00" awaitDeparture="false"/>
			</routeProfile>
			<route>
				<link refId="1_1r_stop_train"/>
				<link refId="1r_5_MTR"/>
				<link refId="5_5r_stop_train"/>
				<link refId="5r_6_MTR"/>
				<link refId="6_6r_stop_train"/>
				<link refId="6r_4_MTR"/>
				<link refId="4_4r_stop_train"/>
			</route>
			<departures>
				<departure id="From_1_to_4_MTR1_0" departureTime="00:00:00" vehicleRefId="From_1_to_4_MTR1_0"/>
				<departure id="From_1_to_4_MTR1_10080" departureTime="02:48:00" vehicleRefId="From_1_to_4_MTR1_10080"/>
				<departure id="From_1_to_4_MTR1_10440" departureTime="02:54:00" vehicleRefId="From_1_to_4_MTR1_10440"/>
				<departure id="From_1_to_4_MTR1_1080" departureTime="00:18:00" vehicleRefId="From_1_to_4_MTR1_1080"/>
				<departure id="From_1_to_4_MTR1_10800" departureTime="03:00:00" vehicleRefId="From_1_to_4_MTR1_10800"/>
				<departure id="From_1_to_4_MTR1_11160" departureTime="03:06:00" vehicleRefId="From_1_to_4_MTR1_11160"/>
				<departure id="From_1_to_4_MTR1_11520" departureTime="03:12:00" vehicleRefId="From_1_to_4_MTR1_11520"/>
				<departure id="From_1_to_4_MTR1_11880" departureTime="03:18:00" vehicleRefId="From_1_to_4_MTR1_11880"/>
				<departure id="From_1_to_4_MTR1_12240" departureTime="03:24:00" vehicleRefId="From_1_to_4_MTR1_12240"/>
				<departure id="From_1_to_4_MTR1_12600" departureTime="03:30:00" vehicleRefId="From_1_to_4_MTR1_12600"/>
				<departure id="From_1_to_4_MTR1_12960" departureTime="03:36:00" vehicleRefId="From_1_to_4_MTR1_12960"/>
				<departure id="From_1_to_4_MTR1_13320" departureTime="03:42:00" vehicleRefId="From_1_to_4_MTR1_13320"/>
				<departure id="From_1_to_4_MTR1_13680" departureTime="03:48:00" vehicleRefId="From_1_to_4_MTR1_13680"/>
				<departure id="From_1_to_4_MTR1_14040" departureTime="03:54:00" vehicleRefId="From_1_to_4_MTR1_14040"/>
				<departure id="From_1_to_4_MTR1_1440" departureTime="00:24:00" vehicleRefId="From_1_to_4_MTR1_1440"/>
				<departure id="From_1_to_4_MTR1_14400" departureTime="04:00:00" vehicleRefId="From_1_to_4_MTR1_14400"/>
				<departure id="From_1_to_4_MTR1_14760" departureTime="04:06:00" vehicleRefId="From_1_to_4_MTR1_14760"/>
				<departure id="From_1_to_4_MTR1_15120" departureTime="04:12:00" vehicleRefId="From_1_to_4_MTR1_15120"/>
				<departure id="From_1_to_4_MTR1_15480" departureTime="04:18:00" vehicleRefId="From_1_to_4_MTR1_15480"/>
				<departure id="From_1_to_4_MTR1_15840" departureTime="04:24:00" vehicleRefId="From_1_to_4_MTR1_15840"/>
				<departure id="From_1_to_4_MTR1_16200" departureTime="04:30:00" vehicleRefId="From_1_to_4_MTR1_16200"/>
				<departure id="From_1_to_4_MTR1_16560" departureTime="04:36:00" vehicleRefId="From_1_to_4_MTR1_16560"/>
				<departure id="From_1_to_4_MTR1_16920" departureTime="04:42:00" vehicleRefId="From_1_to_4_MTR1_16920"/>
				<departure id="From_1_to_4_MTR1_17280" departureTime="04:48:00" vehicleRefId="From_1_to_4_MTR1_17280"/>
				<departure id="From_1_to_4_MTR1_17640" departureTime="04:54:00" vehicleRefId="From_1_to_4_MTR1_17640"/>
				<departure id="From_1_to_4_MTR1_1800" departureTime="00:30:00" vehicleRefId="From_1_to_4_MTR1_1800"/>
				<departure id="From_1_to_4_MTR1_18000" departureTime="05:00:00" vehicleRefId="From_1_to_4_MTR1_18000"/>
				<departure id="From_1_to_4_MTR1_18360" departureTime="05:06:00" vehicleRefId="From_1_to_4_MTR1_18360"/>
				<departure id="From_1_to_4_MTR1_18720" departureTime="05:12:00" vehicleRefId="From_1_to_4_MTR1_18720"/>
				<departure id="From_1_to_4_MTR1_19080" departureTime="05:18:00" vehicleRefId="From_1_to_4_MTR1_19080"/>
				<departure id="From_1_to_4_MTR1_19440" departureTime="05:24:00" vehicleRefId="From_1_to_4_MTR1_19440"/>
				<departure id="From_1_to_4_MTR1_19800" departureTime="05:30:00" vehicleRefId="From_1_to_4_MTR1_19800"/>
				<departure id="From_1_to_4_MTR1_20160" departureTime="05:36:00" vehicleRefId="From_1_to_4_MTR1_20160"/>
				<departure id="From_1_to_4_MTR1_20520" departureTime="05:42:00" vehicleRefId="From_1_to_4_MTR1_20520"/>
				<departure id="From_1_to_4_MTR1_20880" departureTime="05:48:00" vehicleRefId="From_1_to_4_MTR1_20880"/>
				<departure id="From_1_to_4_MTR1_21240" departureTime="05:54:00" vehicleRefId="From_1_to_4_MTR1_21240"/>
				<departure id="From_1_to_4_MTR1_2160" departureTime="00:36:00" vehicleRefId="From_1_to_4_MTR1_2160"/>
				<departure id="From_1_to_4_MTR1_21600" departureTime="06:00:00" vehicleRefId="From_1_to_4_MTR1_21600"/>
				<departure id="From_1_to_4_MTR1_21960" departureTime="06:06:00" vehicleRefId="From_1_to_4_MTR1_21960"/>
				<departure id="From_1_to_4_MTR1_22320" departureTime="06:12:00" vehicleRefId="From_1_to_4_MTR1_22320"/>
				<departure id="From_1_to_4_MTR1_22680" departureTime="06:18:00" vehicleRefId="From_1_to_4_MTR1_22680"/>
				<departure id="From_1_to_4_MTR1_23040" departureTime="06:24:00" vehicleRefId="From_1_to_4_MTR1_23040"/>
				<departure id="From_1_to_4_MTR1_23400" departureTime="06:30:00" vehicleRefId="From_1_to_4_MTR1_23400"/>
				<departure id="From_1_to_4_MTR1_23760" departureTime="06:36:00" vehicleRefId="From_1_to_4_MTR1_23760"/>
				<departure id="From_1_to_4_MTR1_24120" departureTime="06:42:00" vehicleRefId="From_1_to_4_MTR1_24120"/>
				<departure id="From_1_to_4_MTR1_24480" departureTime="06:48:00" vehicleRefId="From_1_to_4_MTR1_24480"/>
				<departure id="From_1_to_4_MTR1_24840" departureTime="06:54:00" vehicleRefId="From_1_to_4_MTR1_24840"/>
				<departure id="From_1_to_4_MTR1_2520" departureTime="00:42:00" vehicleRefId="From_1_to_4_MTR1_2520"/>
				<departure id="From_1_to_4_MTR1_25200" departureTime="07:00:00" vehicleRefId="From_1_to_4_MTR1_25200"/>
				<departure id="From_1_to_4_MTR1_25560" departureTime="07:06:00" vehicleRefId="From_1_to_4_MTR1_25560"/>
				<departure id="From_1_to_4_MTR1_25920" departureTime="07:12:00" vehicleRefId="From_1_to_4_MTR1_25920"/>
				<departure id="From_1_to_4_MTR1_26280" departureTime="07:18:00" vehicleRefId="From_1_to_4_MTR1_26280"/>
				<departure id="From_1_to_4_MTR1_26640" departureTime="07:24:00" vehicleRefId="From_1_to_4_MTR1_26640"/>
				<departure id="From_1_to_4_MTR1_27000" departureTime="07:30:00" vehicleRefId="From_1_to_4_MTR1_27000"/>
				<departure id="From_1_to_4_MTR1_27360" departureTime="07:36:00" vehicleRefId="From_1_to_4_MTR1_27360"/>
				<departure id="From_1_to_4_MTR1_27720" departureTime="07:42:00" vehicleRefId="From_1_to_4_MTR1_27720"/>
				<departure id="From_1_to_4_MTR1_28080" departureTime="07:48:00" vehicleRefId="From_1_to_4_MTR1_28080"/>
				<departure id="From_1_to_4_MTR1_28440" departureTime="07:54:00" vehicleRefId="From_1_to_4_MTR1_28440"/>
				<departure id="From_1_to_4_MTR1_2880" departureTime="00:48:00" vehicleRefId="From_1_to_4_MTR1_2880"/>
				<departure id="From_1_to_4_MTR1_28800" departureTime="08:00:00" vehicleRefId="From_1_to_4_MTR1_28800"/>
				<departure id="From_1_to_4_MTR1_29160" departureTime="08:06:00" vehicleRefId="From_1_to_4_MTR1_29160"/>
				<departure id="From_1_to_4_MTR1_29520" departureTime="08:12:00" vehicleRefId="From_1_to_4_MTR1_29520"/>
				<departure id="From_1_to_4_MTR1_29880" departureTime="08:18:00" vehicleRefId="From_1_to_4_MTR1_29880"/>
				<departure id="From_1_to_4_MTR1_30240" departureTime="08:24:00" vehicleRefId="From_1_to_4_MTR1_30240"/>
				<departure id="From_1_to_4_MTR1_30600" departureTime="08:30:00" vehicleRefId="From_1_to_4_MTR1_30600"/>
				<departure id="From_1_to_4_MTR1_30960" departureTime="08:36:00" vehicleRefId="From_1_to_4_MTR1_30960"/>
				<departure id="From_1_to_4_MTR1_31320" departureTime="08:42:00" vehicleRefId="From_1_to_4_MTR1_31320"/>
				<departure id="From_1_to_4_MTR1_31680" departureTime="08:48:00" vehicleRefId="From_1_to_4_MTR1_31680"/>
				<departure id="From_1_to_4_MTR1_32040" departureTime="08:54:00" vehicleRefId="From_1_to_4_MTR1_32040"/>
				<departure id="From_1_to_4_MTR1_3240" departureTime="00:54:00" vehicleRefId="From_1_to_4_MTR1_3240"/>
				<departure id="From_1_to_4_MTR1_32400" departureTime="09:00:00" vehicleRefId="From_1_to_4_MTR1_32400"/>
				<departure id="From_1_to_4_MTR1_32760" departureTime="09:06:00" vehicleRefId="From_1_to_4_MTR1_32760"/>
				<departure id="From_1_to_4_MTR1_33120" departureTime="09:12:00" vehicleRefId="From_1_to_4_MTR1_33120"/>
				<departure id="From_1_to_4_MTR1_33480" departureTime="09:18:00" vehicleRefId="From_1_to_4_MTR1_33480"/>
				<departure id="From_1_to_4_MTR1_33840" departureTime="09:24:00" vehicleRefId="From_1_to_4_MTR1_33840"/>
				<departure id="From_1_to_4_MTR1_34200" departureTime="09:30:00" vehicleRefId="From_1_to_4_MTR1_34200"/>
				<departure id="From_1_to_4_MTR1_34560" departureTime="09:36:00" vehicleRefId="From_1_to_4_MTR1_34560"/>
				<departure id="From_1_to_4_MTR1_34920" departureTime="09:42:00" vehicleRefId="From_1_to_4_MTR1_34920"/>
				<departure id="From_1_to_4_MTR1_35280" departureTime="09:48:00" vehicleRefId="From_1_to_4_MTR1_35280"/>
				<departure id="From_1_to_4_MTR1_35640" departureTime="09:54:00" vehicleRefId="From_1_to_4_MTR1_35640"/>
				<departure id="From_1_to_4_MTR1_360" departureTime="00:06:00" vehicleRefId="From_1_to_4_MTR1_360"/>
				<departure id="From_1_to_4_MTR1_3600" departureTime="01:00:00" vehicleRefId="From_1_to_4_MTR1_3600"/>
				<departure id="From_1_to_4_MTR1_36000" departureTime="10:00:00" vehicleRefId="From_1_to_4_MTR1_36000"/>
				<departure id="From_1_to_4_MTR1_36360" departureTime="10:06:00" vehicleRefId="From_1_to_4_MTR1_36360"/>
				<departure id="From_1_to_4_MTR1_36720" departureTime="10:12:00" vehicleRefId="From_1_to_4_MTR1_36720"/>
				<departure id="From_1_to_4_MTR1_37080" departureTime="10:18:00" vehicleRefId="From_1_to_4_MTR1_37080"/>
				<departure id="From_1_to_4_MTR1_37440" departureTime="10:24:00" vehicleRefId="From_1_to_4_MTR1_37440"/>
				<departure id="From_1_to_4_MTR1_37800" departureTime="10:30:00" vehicleRefId="From_1_to_4_MTR1_37800"/>
				<departure id="From_1_to_4_MTR1_38160" departureTime="10:36:00" vehicleRefId="From_1_to_4_MTR1_38160"/>
				<departure id="From_1_to_4_MTR1_38520" departureTime="10:42:00" vehicleRefId="From_1_to_4_MTR1_38520"/>
				<departure id="From_1_to_4_MTR1_38880" departureTime="10:48:00" vehicleRefId="From_1_to_4_MTR1_38880"/>
				<departure id="From_1_to_4_MTR1_39240" departureTime="10:54:00" vehicleRefId="From_1_to_4_MTR1_39240"/>
				<departure id="From_1_to_4_MTR1_3960" departureTime="01:06:00" vehicleRefId="From_1_to_4_MTR1_3960"/>
				<departure id="From_1_to_4_MTR1_39600" departureTime="11:00:00" vehicleRefId="From_1_to_4_MTR1_39600"/>
				<departure id="From_1_to_4_MTR1_39960" departureTime="11:06:00" vehicleRefId="From_1_to_4_MTR1_39960"/>
				<departure id="From_1_to_4_MTR1_40320" departureTime="11:12:00" vehicleRefId="From_1_to_4_MTR1_40320"/>
				<departure id="From_1_to_4_MTR1_40680" departureTime="11:18:00" vehicleRefId="From_1_to_4_MTR1_40680"/>
				<departure id="From_1_to_4_MTR1_41040" departureTime="11:24:00" vehicleRefId="From_1_to_4_MTR1_41040"/>
				<departure id="From_1_to_4_MTR1_41400" departureTime="11:30:00" vehicleRefId="From_1_to_4_MTR1_41400"/>
				<departure id="From_1_to_4_MTR1_41760" departureTime="11:36:00" vehicleRefId="From_1_to_4_MTR1_41760"/>
				<departure id="From_1_to_4_MTR1_42120" departureTime="11:42:00" vehicleRefId="From_1_to_4_MTR1_42120"/>
				<departure id="From_1_to_4_MTR1_42480" departureTime="11:48:00" vehicleRefId="From_1_to_4_MTR1_42480"/>
				<departure id="From_1_to_4_MTR1_42840" departureTime="11:54:00" vehicleRefId="From_1_to_4_MTR1_42840"/>
				<departure id="From_1_to_4_MTR1_4320" departureTime="01:12:00" vehicleRefId="From_1_to_4_MTR1_4320"/>
				<departure id="From_1_to_4_MTR1_43200" departureTime="12:00:00" vehicleRefId="From_1_to_4_MTR1_43200"/>
				<departure id="From_1_to_4_MTR1_43560" departureTime="12:06:00" vehicleRefId="From_1_to_4_MTR1_43560"/>
				<departure id="From_1_to_4_MTR1_43920" departureTime="12:12:00" vehicleRefId="From_1_to_4_MTR1_43920"/>
				<departure id="From_1_to_4_MTR1_44280" departureTime="12:18:00" vehicleRefId="From_1_to_4_MTR1_44280"/>
				<departure id="From_1_to_4_MTR1_44640" departureTime="12:24:00" vehicleRefId="From_1_to_4_MTR1_44640"/>
				<departure id="From_1_to_4_MTR1_45000" departureTime="12:30:00" vehicleRefId="From_1_to_4_MTR1_45000"/>
				<departure id="From_1_to_4_MTR1_45360" departureTime="12:36:00" vehicleRefId="From_1_to_4_MTR1_45360"/>
				<departure id="From_1_to_4_MTR1_45720" departureTime="12:42:00" vehicleRefId="From_1_to_4_MTR1_45720"/>
				<departure id="From_1_to_4_MTR1_46080" departureTime="12:48:00" vehicleRefId="From_1_to_4_MTR1_46080"/>
				<departure id="From_1_to_4_MTR1_46440" departureTime="12:54:00" vehicleRefId="From_1_to_4_MTR1_46440"/>
				<departure id="From_1_to_4_MTR1_4680" departureTime="01:18:00" vehicleRefId="From_1_to_4_MTR1_4680"/>
				<departure id="From_1_to_4_MTR1_46800" departureTime="13:00:00" vehicleRefId="From_1_to_4_MTR1_46800"/>
				<departure id="From_1_to_4_MTR1_47160" departureTime="13:06:00" vehicleRefId="From_1_to_4_MTR1_47160"/>
				<departure id="From_1_to_4_MTR1_47520" departureTime="13:12:00" vehicleRefId="From_1_to_4_MTR1_47520"/>
				<departure id="From_1_to_4_MTR1_47880" departureTime="13:18:00" vehicleRefId="From_1_to_4_MTR1_47880"/>
				<departure id="From_1_to_4_MTR1_48240" departureTime="13:24:00" vehicleRefId="From_1_to_4_MTR1_48240"/>
				<departure id="From_1_to_4_MTR1_48600" departureTime="13:30:00" vehicleRefId="From_1_to_4_MTR1_48600"/>
				<departure id="From_1_to_4_MTR1_48960" departureTime="13:36:00" vehicleRefId="From_1_to_4_MTR1_48960"/>
				<departure id="From_1_to_4_MTR1_49320" departureTime="13:42:00" vehicleRefId="From_1_to_4_MTR1_49320"/>
				<departure id="From_1_to_4_MTR1_49680" departureTime="13:48:00" vehicleRefId="From_1_to_4_MTR1_49680"/>
				<departure id="From_1_to_4_MTR1_50040" departureTime="13:54:00" vehicleRefId="From_1_to_4_MTR1_50040"/>
				<departure id="From_1_to_4_MTR1_5040" departureTime="01:24:00" vehicleRefId="From_1_to_4_MTR1_5040"/>
				<departure id="From_1_to_4_MTR1_50400" departureTime="14:00:00" vehicleRefId="From_1_to_4_MTR1_50400"/>
				<departure id="From_1_to_4_MTR1_50760" departureTime="14:06:00" vehicleRefId="From_1_to_4_MTR1_50760"/>
				<departure id="From_1_to_4_MTR1_51120" departureTime="14:12:00" vehicleRefId="From_1_to_4_MTR1_51120"/>
				<departure id="From_1_to_4_MTR1_51480" departureTime="14:18:00" vehicleRefId="From_1_to_4_MTR1_51480"/>
				<departure id="From_1_to_4_MTR1_51840" departureTime="14:24:00" vehicleRefId="From_1_to_4_MTR1_51840"/>
				<departure id="From_1_to_4_MTR1_52200" departureTime="14:30:00" vehicleRefId="From_1_to_4_MTR1_52200"/>
				<departure id="From_1_to_4_MTR1_52560" departureTime="14:36:00" vehicleRefId="From_1_to_4_MTR1_52560"/>
				<departure id="From_1_to_4_MTR1_52920" departureTime="14:42:00" vehicleRefId="From_1_to_4_MTR1_52920"/>
				<departure id="From_1_to_4_MTR1_53280" departureTime="14:48:00" vehicleRefId="From_1_to_4_MTR1_53280"/>
				<departure id="From_1_to_4_MTR1_53640" departureTime="14:54:00" vehicleRefId="From_1_to_4_MTR1_53640"/>
				<departure id="From_1_to_4_MTR1_5400" departureTime="01:30:00" vehicleRefId="From_1_to_4_MTR1_5400"/>
				<departure id="From_1_to_4_MTR1_54000" departureTime="15:00:00" vehicleRefId="From_1_to_4_MTR1_54000"/>
				<departure id="From_1_to_4_MTR1_54360" departureTime="15:06:00" vehicleRefId="From_1_to_4_MTR1_54360"/>
				<departure id="From_1_to_4_MTR1_54720" departureTime="15:12:00" vehicleRefId="From_1_to_4_MTR1_54720"/>
				<departure id="From_1_to_4_MTR1_55080" departureTime="15:18:00" vehicleRefId="From_1_to_4_MTR1_55080"/>
				<departure id="From_1_to_4_MTR1_55440" departureTime="15:24:00" vehicleRefId="From_1_to_4_MTR1_55440"/>
				<departure id="From_1_to_4_MTR1_55800" departureTime="15:30:00" vehicleRefId="From_1_to_4_MTR1_55800"/>
				<departure id="From_1_to_4_MTR1_56160" departureTime="15:36:00" vehicleRefId="From_1_to_4_MTR1_56160"/>
				<departure id="From_1_to_4_MTR1_56520" departureTime="15:42:00" vehicleRefId="From_1_to_4_MTR1_56520"/>
				<departure id="From_1_to_4_MTR1_56880" departureTime="15:48:00" vehicleRefId="From_1_to_4_MTR1_56880"/>
				<departure id="From_1_to_4_MTR1_57240" departureTime="15:54:00" vehicleRefId="From_1_to_4_MTR1_57240"/>
				<departure id="From_1_to_4_MTR1_5760" departureTime="01:36:00" vehicleRefId="From_1_to_4_MTR1_5760"/>
				<departure id="From_1_to_4_MTR1_57600" departureTime="16:00:00" vehicleRefId="From_1_to_4_MTR1_57600"/>
				<departure id="From_1_to_4_MTR1_57960" departureTime="16:06:00" vehicleRefId="From_1_to_4_MTR1_57960"/>
				<departure id="From_1_to_4_MTR1_58320" departureTime="16:12:00" vehicleRefId="From_1_to_4_MTR1_58320"/>
				<departure id="From_1_to_4_MTR1_58680" departureTime="16:18:00" vehicleRefId="From_1_to_4_MTR1_58680"/>
				<departure id="From_1_to_4_MTR1_59040" departureTime="16:24:00" vehicleRefId="From_1_to_4_MTR1_59040"/>
				<departure id="From_1_to_4_MTR1_59400" departureTime="16:30:00" vehicleRefId="From_1_to_4_MTR1_59400"/>
				<departure id="From_1_to_4_MTR1_59760" departureTime="16:36:00" vehicleRefId="From_1_to_4_MTR1_59760"/>
				<departure id="From_1_to_4_MTR1_60120" departureTime="16:42:00" vehicleRefId="From_1_to_4_MTR1_60120"/>
				<departure id="From_1_to_4_MTR1_60480" departureTime="16:48:00" vehicleRefId="From_1_to_4_MTR1_60480"/>
				<departure id="From_1_to_4_MTR1_60840" departureTime="16:54:00" vehicleRefId="From_1_to_4_MTR1_60840"/>
				<departure id="From_1_to_4_MTR1_6120" departureTime="01:42:00" vehicleRefId="From_1_to_4_MTR1_6120"/>
				<departure id="From_1_to_4_MTR1_61200" departureTime="17:00:00" vehicleRefId="From_1_to_4_MTR1_61200"/>
				<departure id="From_1_to_4_MTR1_61560" departureTime="17:06:00" vehicleRefId="From_1_to_4_MTR1_61560"/>
				<departure id="From_1_to_4_MTR1_61920" departureTime="17:12:00" vehicleRefId="From_1_to_4_MTR1_61920"/>
				<departure id="From_1_to_4_MTR1_62280" departureTime="17:18:00" vehicleRefId="From_1_to_4_MTR1_62280"/>
				<departure id="From_1_to_4_MTR1_62640" departureTime="17:24:00" vehicleRefId="From_1_to_4_MTR1_62640"/>
				<departure id="From_1_to_4_MTR1_63000" departureTime="17:30:00" vehicleRefId="From_1_to_4_MTR1_63000"/>
				<departure id="From_1_to_4_MTR1_63360" departureTime="17:36:00" vehicleRefId="From_1_to_4_MTR1_63360"/>
				<departure id="From_1_to_4_MTR1_63720" departureTime="17:42:00" vehicleRefId="From_1_to_4_MTR1_63720"/>
				<departure id="From_1_to_4_MTR1_64080" departureTime="17:48:00" vehicleRefId="From_1_to_4_MTR1_64080"/>
				<departure id="From_1_to_4_MTR1_64440" departureTime="17:54:00" vehicleRefId="From_1_to_4_MTR1_64440"/>
				<departure id="From_1_to_4_MTR1_6480" departureTime="01:48:00" vehicleRefId="From_1_to_4_MTR1_6480"/>
				<departure id="From_1_to_4_MTR1_64800" departureTime="18:00:00" vehicleRefId="From_1_to_4_MTR1_64800"/>
				<departure id="From_1_to_4_MTR1_65160" departureTime="18:06:00" vehicleRefId="From_1_to_4_MTR1_65160"/>
				<departure id="From_1_to_4_MTR1_65520" departureTime="18:12:00" vehicleRefId="From_1_to_4_MTR1_65520"/>
				<departure id="From_1_to_4_MTR1_65880" departureTime="18:18:00" vehicleRefId="From_1_to_4_MTR1_65880"/>
				<departure id="From_1_to_4_MTR1_66240" departureTime="18:24:00" vehicleRefId="From_1_to_4_MTR1_66240"/>
				<departure id="From_1_to_4_MTR1_66600" departureTime="18:30:00" vehicleRefId="From_1_to_4_MTR1_66600"/>
				<departure id="From_1_to_4_MTR1_66960" departureTime="18:36:00" vehicleRefId="From_1_to_4_MTR1_66960"/>
				<departure id="From_1_to_4_MTR1_67320" departureTime="18:42:00" vehicleRefId="From_1_to_4_MTR1_67320"/>
				<departure id="From_1_to_4_MTR1_67680" departureTime="18:48:00" vehicleRefId="From_1_to_4_MTR1_67680"/>
				<departure id="From_1_to_4_MTR1_68040" departureTime="18:54:00" vehicleRefId="From_1_to_4_MTR1_68040"/>
				<departure id="From_1_to_4_MTR1_6840" departureTime="01:54:00" vehicleRefId="From_1_to_4_MTR1_6840"/>
				<departure id="From_1_to_4_MTR1_68400" departureTime="19:00:00" vehicleRefId="From_1_to_4_MTR1_68400"/>
				<departure id="From_1_to_4_MTR1_68760" departureTime="19:06:00" vehicleRefId="From_1_to_4_MTR1_68760"/>
				<departure id="From_1_to_4_MTR1_69120" departureTime="19:12:00" vehicleRefId="From_1_to_4_MTR1_69120"/>
				<departure id="From_1_to_4_MTR1_69480" departureTime="19:18:00" vehicleRefId="From_1_to_4_MTR1_69480"/>
				<departure id="From_1_to_4_MTR1_69840" departureTime="19:24:00" vehicleRefId="From_1_to_4_MTR1_69840"/>
				<departure id="From_1_to_4_MTR1_70200" departureTime="19:30:00" vehicleRefId="From_1_to_4_MTR1_70200"/>
				<departure id="From_1_to_4_MTR1_70560" departureTime="19:36:00" vehicleRefId="From_1_to_4_MTR1_70560"/>
				<departure id="From_1_to_4_MTR1_70920" departureTime="19:42:00" vehicleRefId="From_1_to_4_MTR1_70920"/>
				<departure id="From_1_to_4_MTR1_71280" departureTime="19:48:00" vehicleRefId="From_1_to_4_MTR1_71280"/>
				<departure id="From_1_to_4_MTR1_71640" departureTime="19:54:00" vehicleRefId="From_1_to_4_MTR1_71640"/>
				<departure id="From_1_to_4_MTR1_720" departureTime="00:12:00" vehicleRefId="From_1_to_4_MTR1_720"/>
				<departure id="From_1_to_4_MTR1_7200" departureTime="02:00:00" vehicleRefId="From_1_to_4_MTR1_7200"/>
				<departure id="From_1_to_4_MTR1_72000" departureTime="20:00:00" vehicleRefId="From_1_to_4_MTR1_72000"/>
				<departure id="From_1_to_4_MTR1_72360" departureTime="20:06:00" vehicleRefId="From_1_to_4_MTR1_72360"/>
				<departure id="From_1_to_4_MTR1_72720" departureTime="20:12:00" vehicleRefId="From_1_to_4_MTR1_72720"/>
				<departure id="From_1_to_4_MTR1_73080" departureTime="20:18:00" vehicleRefId="From_1_to_4_MTR1_73080"/>
				<departure id="From_1_to_4_MTR1_73440" departureTime="20:24:00" vehicleRefId="From_1_to_4_MTR1_73440"/>
				<departure id="From_1_to_4_MTR1_73800" departureTime="20:30:00" vehicleRefId="From_1_to_4_MTR1_73800"/>
				<departure id="From_1_to_4_MTR1_74160" departureTime="20:36:00" vehicleRefId="From_1_to_4_MTR1_74160"/>
				<departure id="From_1_to_4_MTR1_74520" departureTime="20:42:00" vehicleRefId="From_1_to_4_MTR1_74520"/>
				<departure id="From_1_to_4_MTR1_74880" departureTime="20:48:00" vehicleRefId="From_1_to_4_MTR1_74880"/>
				<departure id="From_1_to_4_MTR1_75240" departureTime="20:54:00" vehicleRefId="From_1_to_4_MTR1_75240"/>
				<departure id="From_1_to_4_MTR1_7560" departureTime="02:06:00" vehicleRefId="From_1_to_4_MTR1_7560"/>
				<departure id="From_1_to_4_MTR1_75600" departureTime="21:00:00" vehicleRefId="From_1_to_4_MTR1_75600"/>
				<departure id="From_1_to_4_MTR1_75960" departureTime="21:06:00" vehicleRefId="From_1_to_4_MTR1_75960"/>
				<departure id="From_1_to_4_MTR1_76320" departureTime="21:12:00" vehicleRefId="From_1_to_4_MTR1_76320"/>
				<departure id="From_1_to_4_MTR1_76680" departureTime="21:18:00" vehicleRefId="From_1_to_4_MTR1_76680"/>
				<departure id="From_1_to_4_MTR1_77040" departureTime="21:24:00" vehicleRefId="From_1_to_4_MTR1_77040"/>
				<departure id="From_1_to_4_MTR1_77400" departureTime="21:30:00" vehicleRefId="From_1_to_4_MTR1_77400"/>
				<departure id="From_1_to_4_MTR1_77760" departureTime="21:36:00" vehicleRefId="From_1_to_4_MTR1_77760"/>
				<departure id="From_1_to_4_MTR1_78120" departureTime="21:42:00" vehicleRefId="From_1_to_4_MTR1_78120"/>
				<departure id="From_1_to_4_MTR1_78480" departureTime="21:48:00" vehicleRefId="From_1_to_4_MTR1_78480"/>
				<departure id="From_1_to_4_MTR1_78840" departureTime="21:54:00" vehicleRefId="From_1_to_4_MTR1_78840"/>
				<departure id="From_1_to_4_MTR1_7920" departureTime="02:12:00" vehicleRefId="From_1_to_4_MTR1_7920"/>
				<departure id="From_1_to_4_MTR1_79200" departureTime="22:00:00" vehicleRefId="From_1_to_4_MTR1_79200"/>
				<departure id="From_1_to_4_MTR1_79560" departureTime="22:06:00" vehicleRefId="From_1_to_4_MTR1_79560"/>
				<departure id="From_1_to_4_MTR1_79920" departureTime="22:12:00" vehicleRefId="From_1_to_4_MTR1_79920"/>
				<departure id="From_1_to_4_MTR1_80280" departureTime="22:18:00" vehicleRefId="From_1_to_4_MTR1_80280"/>
				<departure id="From_1_to_4_MTR1_80640" departureTime="22:24:00" vehicleRefId="From_1_to_4_MTR1_80640"/>
				<departure id="From_1_to_4_MTR1_81000" departureTime="22:30:00" vehicleRefId="From_1_to_4_MTR1_81000"/>
				<departure id="From_1_to_4_MTR1_81360" departureTime="22:36:00" vehicleRefId="From_1_to_4_MTR1_81360"/>
				<departure id="From_1_to_4_MTR1_81720" departureTime="22:42:00" vehicleRefId="From_1_to_4_MTR1_81720"/>
				<departure id="From_1_to_4_MTR1_82080" departureTime="22:48:00" vehicleRefId="From_1_to_4_MTR1_82080"/>
				<departure id="From_1_to_4_MTR1_82440" departureTime="22:54:00" vehicleRefId="From_1_to_4_MTR1_82440"/>
				<departure id="From_1_to_4_MTR1_8280" departureTime="02:18:00" vehicleRefId="From_1_to_4_MTR1_8280"/>
				<departure id="From_1_to_4_MTR1_82800" departureTime="23:00:00" vehicleRefId="From_1_to_4_MTR1_82800"/>
				<departure id="From_1_to_4_MTR1_83160" departureTime="23:06:00" vehicleRefId="From_1_to_4_MTR1_83160"/>
				<departure id="From_1_to_4_MTR1_83520" departureTime="23:12:00" vehicleRefId="From_1_to_4_MTR1_83520"/>
				<departure id="From_1_to_4_MTR1_83880" departureTime="23:18:00" vehicleRefId="From_1_to_4_MTR1_83880"/>
				<departure id="From_1_to_4_MTR1_84240" departureTime="23:24:00" vehicleRefId="From_1_to_4_MTR1_84240"/>
				<departure id="From_1_to_4_MTR1_84600" departureTime="23:30:00" vehicleRefId="From_1_to_4_MTR1_84600"/>
				<departure id="From_1_to_4_MTR1_84960" departureTime="23:36:00" vehicleRefId="From_1_to_4_MTR1_84960"/>
				<departure id="From_1_to_4_MTR1_85320" departureTime="23:42:00" vehicleRefId="From_1_to_4_MTR1_85320"/>
				<departure id="From_1_to_4_MTR1_85680" departureTime="23:48:00" vehicleRefId="From_1_to_4_MTR1_85680"/>
				<departure id="From_1_to_4_MTR1_86040" departureTime="23:54:00" vehicleRefId="From_1_to_4_MTR1_86040"/>