<?xml version="1.0" encoding="UTF-8"?>
<!DOCTYPE network SYSTEM "http://www.matsim.org/files/dtd/network_v2.dtd">
<network>

<!-- ====================================================================== -->

	<nodes>
		<node id="111001.0" x="30288.009864556487" y="15558.581279101898" >
		</node>
		<node id="111002.0" x="30889.299971705303" y="15981.619070656016" >
		</node>
		<node id="111003.0" x="31051.374696335173" y="16051.546566067613" >
		</node>
		<node id="111004.0" x="31158.67143286753" y="16071.239092587493" >
		</node>
		<node id="111005.0" x="31274.527124464163" y="16092.360264014686" >
		</node>
		<node id="111006.0" x="31350.834298864473" y="16106.099342634436" >
		</node>
		<node id="111007.0" x="31066.82692854479" y="15976.24421568308" >
		</node>
		<node id="111008.0" x="31170.709486687905" y="16014.27367798041" >
		</node>
		<node id="111009.0" x="31177.878369533806" y="15976.569165470195" >
		</node>
		<node id="111010.0" x="31288.305935676326" y="16016.516859814757" >
		</node>
		<node id="111011.0" x="31383.212321446277" y="16040.523795664776" >
		</node>
		<node id="111012.0" x="31478.948702764348" y="16119.624056943576" >
		</node>
		<node id="111013.0" x="31547.831831915653" y="16179.128967024386" >
		</node>
		<node id="111014.0" x="31587.091184099554" y="16214.581625389983" >
		</node>
		<node id="111015.0" x="31641.941775996238" y="16076.543067910592" >
		</node>
		<node id="111016.0" x="31669.83543316857" y="16220.874342728755" >
		</node>
		<node id="111017.0" x="31779.331271436182" y="16271.151669890969" >
		</node>
		<node id="111018.0" x="30699.732511678594" y="15365.878187776078" >
		</node>
		<node id="111019.0" x="30758.435129346093" y="15814.837093767477" >
		</node>
		<node id="111020.0" x="30930.26073541341" y="15867.06982175645" >
		</node>
		<node id="111021.0" x="31087.230306518613" y="15879.75350044854" >
		</node>
		<node id="111022.0" x="31192.476291975006" y="15898.585255700862" >
		</node>
		<node id="111023.0" x="31300.970294484752" y="15946.290610527969" >
		</node>
		<node id="111024.0" x="31412.7191628766" y="15978.839876714628" >
		</node>
		<node id="111025.0" x="31510.731289775344" y="16051.529766297434" >
		</node>
		<node id="111026.0" x="31223.246758078225" y="15658.45673478546" >
		</node>
		<node id="111027.0" x="31426.060225962545" y="15858.297562405001" >
		</node>
		<node id="111028.0" x="31514.049063110026" y="15933.733239023364" >
		</node>
		<node id="111029.0" x="31539.983202839503" y="16018.759433207917" >
		</node>
		<node id="111030.0" x="31583.337104701204" y="16072.458387830644" >
		</node>
		<node id="111031.0" x="31560.503598842188" y="15993.584147467278" >
		</node>
		<node id="111032.0" x="31597.39641110506" y="15978.370401227497" >
		</node>
		<node id="111035.0" x="31490.643030850566" y="15719.933710944722" >
		</node>
		<node id="111037.0" x="29672.19083452411" y="16195.978396527586" >
		</node>
		<node id="111038.0" x="30074.399204861606" y="16301.908658810193" >
		</node>
		<node id="111039.0" x="31626.11866492068" y="15950.169019261491" >
		</node>
		<node id="111040.0" x="31247.46045993804" y="16152.480389832053" >
		</node>
		<node id="111041.0" x="31398.833675194415" y="16281.868089920259" >
		</node>
		<node id="111042.0" x="31461.781863690703" y="16223.85418398655" >
		</node>
		<node id="111043.0" x="31424.401837361627" y="15426.029908617376" >
		</node>
		<node id="111044.0" x="31301.518964760005" y="15190.095067644375" >
		</node>
		<node id="111045.0" x="31195.84997102956" y="15121.264526850195" >
		</node>
		<node id="111046.0" x="30639.1852516738" y="14902.522717600456" >
		</node>
		<node id="111047.0" x="30510.41095355223" y="14918.668077963404" >
		</node>
		<node id="111048.0" x="30386.551161526237" y="14981.899797334918" >
		</node>
		<node id="111049.0" x="30286.3547295084" y="15022.901388069615" >
		</node>
		<node id="111050.0" x="30990.61987057794" y="15790.452964044409" >
		</node>
		<node id="112001.0" x="32047.89052889531" y="16465.969224890112" >
		</node>
		<node id="112002.0" x="32147.31660634477" y="16490.926330831135" >
		</node>
		<node id="112003.0" x="32266.36676176556" y="16526.349681226653" >
		</node>
		<node id="112004.0" x="32364.148155090632" y="16555.1732488157" >
		</node>
		<node id="112005.0" x="32475.211662769434" y="16588.884934590315" >
		</node>
		<node id="112006.0" x="32633.622962950612" y="16606.197973096743" >
		</node>
		<node id="112007.0" x="32785.34384929936" y="16601.28886044142" >
		</node>
		<node id="112008.0" x="32057.910296443035" y="16381.71488571819" >
		</node>
		<node id="112009.0" x="32233.32330377726" y="16423.890389429638" >
		</node>
		<node id="112010.0" x="32382.00281292945" y="16493.54503477353" >
		</node>
		<node id="112011.0" x="32394.754835617496" y="16448.416177938576" >
		</node>
		<node id="112012.0" x="32486.216839942266" y="16500.063537098817" >
		</node>
		<node id="112013.0" x="32573.264151342213" y="16509.437174383667" >
		</node>
		<node id="112014.0" x="32606.90805441537" y="16507.595713259885" >
		</node>
		<node id="112017.0" x="32727.06439039274" y="16502.48750111973" >
		</node>
		<node id="112018.0" x="32760.801966092782" y="16505.212270087213" >
		</node>
		<node id="112019.0" x="32793.951327699004" y="16502.076171954628" >
		</node>
		<node id="112020.0" x="32833.441883302876" y="16500.866623122944" >
		</node>
		<node id="112021.0" x="32007.616181639605" y="16320.612347266753" >
		</node>
		<node id="112022.0" x="32160.754382282495" y="16298.664931207197" >
		</node>
		<node id="112023.0" x="32271.890161733725" y="16296.626596440095" >
		</node>
		<node id="112024.0" x="32336.16449685651" y="16370.160375609878" >
		</node>
		<node id="112025.0" x="32355.442485732492" y="16275.204431959544" >
		</node>
		<node id="112026.0" x="32440.47311488469" y="16409.107385913958" >
		</node>
		<node id="112027.0" x="32525.605055753957" y="16432.353879979695" >
		</node>
		<node id="112028.0" x="32626.02657414053" y="16430.51911495009" >
		</node>
		<node id="112029.0" x="32777.625121213845" y="16425.31213059614" >
		</node>
		<node id="112030.0" x="32513.559057735023" y="16390.797220647684" >
		</node>
		<node id="112031.0" x="32623.9377316538" y="16387.967756363447" >
		</node>
		<node id="112032.0" x="32775.43392813753" y="16382.47489807161" >
		</node>
		<node id="112033.0" x="32419.849781396217" y="16346.598011664348" >
		</node>
		<node id="112034.0" x="32505.341896193684" y="16342.393722390872" >
		</node>
		<node id="112035.0" x="32621.313444627216" y="16339.232954349602" >
		</node>
		<node id="112036.0" x="32772.33270418178" y="16334.094262035447" >
		</node>
		<node id="112037.0" x="32449.93494343292" y="16288.828238623799" >
		</node>
		<node id="112038.0" x="32618.91260586842" y="16284.29456512921" >
		</node>
		<node id="112039.0" x="32769.74742813315" y="16278.997667395277" >
		</node>
		<node id="112040.0" x="32097.47215352545" y="16230.794479021453" >
		</node>
		<node id="112041.0" x="32089.04698250338" y="16183.175396312843" >
		</node>
		<node id="112042.0" x="32300.790729211178" y="16210.776065411279" >
		</node>
		<node id="112043.0" x="32455.970617065905" y="16196.427894831286" >
		</node>
		<node id="112044.0" x="32608.320165561396" y="16221.625378792756" >
		</node>
		<node id="112045.0" x="32768.101824796526" y="16209.514524051105" >
		</node>
		<node id="112046.0" x="32117.534335028497" y="16137.883375131292" >
		</node>
		<node id="112048.0" x="31826.275420714286" y="16570.100679339143" >
		</node>
		<node id="112052.0" x="32684.302403324516" y="16516.408507058048" >
		</node>
		<node id="112053.0" x="32646.523490079562" y="16499.477659358294" >
		</node>
		<node id="112054.0" x="32142.215466337046" y="16572.686544017983" >
		</node>
		<node id="112055.0" x="32178.434260019218" y="16703.21369740297" >
		</node>
		<node id="112056.0" x="32613.92531879351" y="16739.688569142018" >
		</node>
		<node id="113002.0" x="33110.89616350131" y="16510.88296295749" >
		</node>
		<node id="113003.0" x="33443.04356285941" y="16507.63329782267" >
		</node>
		<node id="113004.0" x="33600.62727876636" y="16478.154855184606" >
		</node>
		<node id="113005.0" x="33099.16357781435" y="16448.61910049338" >
		</node>
		<node id="113006.0" x="33254.402947252616" y="16488.796051054145" >
		</node>
		<node id="113007.0" x="33352.8099331673" y="16484.630708414945" >
		</node>
		<node id="113008.0" x="33581.709856458125" y="16398.523730483023" >
		</node>
		<node id="113009.0" x="33040.172939457465" y="16339.169050439843" >
		</node>
		<node id="113010.0" x="33185.6687264248" y="16336.170279403566" >
		</node>
		<node id="113011.0" x="33271.6322281952" y="16369.514808634529" >
		</node>
		<node id="113012.0" x="33345.388695274945" y="16426.75385265029" >
		</node>
		<node id="113013.0" x="33458.899810825824" y="16368.904670079588" >
		</node>
		<node id="113014.0" x="33557.12372018909" y="16329.170030574198" >
		</node>
		<node id="113015.0" x="33370.46408803214" y="16288.037049899693" >
		</node>
		<node id="113016.0" x="33408.030698399874" y="16326.94559336314" >
		</node>
		<node id="113017.0" x="33523.99215550965" y="16288.696258754004" >
		</node>
		<node id="113018.0" x="32969.134022897575" y="16249.810368465493" >
		</node>
		<node id="113019.0" x="33329.98208671773" y="16243.650763982325" >
		</node>
		<node id="113020.0" x="33487.81895209802" y="16227.497215989511" >
		</node>
		<node id="113021.0" x="33286.459109922755" y="16190.724900858826" >
		</node>
		<node id="113022.0" x="33437.60367380432" y="16159.313179673161" >
		</node>
		<node id="113023.0" x="33592.006573924096" y="16155.053203965304" >
		</node>
		<node id="113024.0" x="33250.84381135169" y="16113.676773893181" >
		</node>
		<node id="113025.0" x="33401.70175943442" y="16092.030343055492" >
		</node>
		<node id="113026.0" x="33443.06373167562" y="16645.514488505316" >
		</node>
		<node id="113028.0" x="32907.11151072197" y="16502.473821883323" >
		</node>
		<node id="114003.0" x="33705.79989682941" y="16447.021932129515" >
		</node>
		<node id="114004.0" x="33805.534966384526" y="16417.520829854533" >
		</node>
		<node id="114005.0" x="33891.97152549389" y="16382.502692465321" >
		</node>
		<node id="114006.0" x="33973.299968477455" y="16332.225422194693" >
		</node>
		<node id="114007.0" x="34070.58239646687" y="16264.268097475637" >
		</node>
		<node id="114008.0" x="33662.16314931889" y="16375.141303782468" >
		</node>
		<node id="114009.0" x="33792.73389414081" y="16359.619049100322" >
		</node>
		<node id="114010.0" x="33717.55314839934" y="16331.865064059966" >
		</node>
		<node id="114014.0" x="33626.44847792818" y="16292.163326556678" >
		</node>
		<node id="114015.0" x="33673.804267667816" y="16263.949865535833" >
		</node>
		<node id="114016.0" x="33729.27621686342" y="16271.211369994562" >
		</node>
		<node id="114017.0" x="33581.827472346835" y="16230.383735259995" >
		</node>
		<node id="114018.0" x="33690.117195191095" y="16220.492523291963" >
		</node>
		<node id="114019.0" x="33760.1005088517" y="16184.73276784236" >
		</node>
		<node id="114020.0" x="33890.24319068983" y="16153.122214189614" >
		</node>
		<node id="114021.0" x="33729.14873401215" y="16123.462234296254" >
		</node>
		<node id="114022.0" x="33847.95705520117" y="16112.340516077587" >
		</node>
		<node id="114023.0" x="33560.677465976565" y="16097.46294156171" >
		</node>
		<node id="114024.0" x="33687.03059435426" y="16061.578504658653" >
		</node>
		<node id="114025.0" x="33797.19135859492" y="16058.41480406851" >
		</node>
		<node id="114026.0" x="33882.15370341425" y="16064.616403944325" >
		</node>
		<node id="114027.0" x="33509.48552120454" y="16035.790807738551" >
		</node>
		<node id="114028.0" x="33617.30256151757" y="15988.700424213079" >
		</node>
		<node id="114029.0" x="33734.531794855255" y="16009.792769750813" >
		</node>
		<node id="114030.0" x="33774.00528309797" y="15969.36236947996" >
		</node>
		<node id="114031.0" x="33829.738277229946" y="16009.721281793318" >
		</node>
		<node id="114032.0" x="33819.29794806882" y="16292.130090224557" >
		</node>
		<node id="114033.0" x="33909.025784877245" y="16250.097910123295" >
		</node>
		<node id="114034.0" x="33990.399999498506" y="16192.783093308099" >
		</node>
		<node id="115001.0" x="32914.56815149344" y="16597.05549561372" >
		</node>
		<node id="115002.0" x="33022.86871961597" y="16593.205307659693" >
		</node>
		<node id="115003.0" x="33143.20024430205" y="16583.471300238976" >
		</node>
		<node id="115004.0" x="33247.30686189886" y="16584.774556736345" >
		</node>
		<node id="115006.0" x="33279.52932732878" y="16692.866989529575" >
		</node>
		<node id="115007.0" x="33044.23623054859" y="16736.731940881582" >
		</node>
		<node id="116001.0" x="31641.600702040363" y="16275.06080523436" >
		</node>
		<node id="116002.0" x="31682.955980986357" y="16370.48670754733" >
		</node>
		<node id="116003.0" x="31845.726696144906" y="16430.69303864485" >
		</node>
		<node id="116004.0" x="31852.357535073883" y="16348.166083642049" >
		</node>
		<node id="116005.0" x="31919.937635239097" y="16331.473693953361" >
		</node>
		<node id="116006.0" x="31904.66307422542" y="16175.952348193503" >
		</node>
		<node id="116007.0" x="31577.12466525717" y="16454.60520436149" >
		</node>
		<node id="116008.0" x="31612.566474251682" y="16383.01706114225" >
		</node>
		<node id="121002.0" x="34137.02908187371" y="16189.005045335973" >
		</node>
		<node id="121003.0" x="34176.56085370504" y="16139.139071556623" >
		</node>
		<node id="121004.0" x="34224.71931569895" y="16075.962595571764" >
		</node>
		<node id="121005.0" x="34054.588679516804" y="16126.699725951068" >
		</node>
		<node id="121006.0" x="34085.818796367035" y="16092.139441121952" >
		</node>
		<node id="121007.0" x="34108.185632869834" y="16066.928433060064" >
		</node>
		<node id="121008.0" x="34125.08486022102" y="16038.388807518291" >
		</node>
		<node id="121009.0" x="34148.04702558229" y="16008.208470792975" >
		</node>
		<node id="121010.0" x="34170.27566496399" y="15978.557990159723" >
		</node>
		<node id="121011.0" x="34197.08210923674" y="15943.862337027094" >
		</node>
		<node id="121012.0" x="34232.56458199443" y="15897.046083034831" >
		</node>
		<node id="121013.0" x="34102.18049903645" y="15938.708555472898" >
		</node>
		<node id="121014.0" x="34074.31529103615" y="15904.141246326035" >
		</node>
		<node id="121015.0" x="34148.996049210196" y="15831.329496965976" >
		</node>
		<node id="121016.0" x="34080.95122635306" y="15764.945856956881" >
		</node>
		<node id="121017.0" x="33725.30719684262" y="16591.47969175398" >
		</node>
		<node id="121019.0" x="34245.843248212244" y="16432.343164004036" >
		</node>
		<node id="121020.0" x="34313.19336561044" y="16276.88237778889" >
		</node>
		<node id="121021.0" x="34371.17344709113" y="16063.153224387439" >
		</node>
		<node id="122001.0" x="33655.68990060082" y="15911.354467907338" >
		</node>
		<node id="122002.0" x="33681.027155420976" y="15964.969030803419" >
		</node>
		<node id="122003.0" x="33708.11990239553" y="15938.651778303087" >
		</node>
		<node id="122004.0" x="33721.4943503869" y="15858.481480235816" >
		</node>
		<node id="122005.0" x="33767.95753835433" y="15888.12114107178" >
		</node>
		<node id="122006.0" x="33813.645768815884" y="15920.013070301036" >
		</node>
		<node id="122007.0" x="33867.82452820765" y="15941.1259939007" >
		</node>
		<node id="122008.0" x="33862.95155704126" y="15981.943671813118" >
		</node>
		<node id="122009.0" x="33912.30446531554" y="16022.33687393926" >
		</node>
		<node id="122010.0" x="33951.6353852395" y="16063.607738827937" >
		</node>
		<node id="122011.0" x="33977.18557821924" y="16087.874222357059" >
		</node>
		<node id="122012.0" x="33955.59131583851" y="15980.049273852259" >
		</node>
		<node id="122013.0" x="33997.581600792124" y="16002.69079733151" >
		</node>
		<node id="122014.0" x="34024.5008555603" y="16035.909466126119" >
		</node>
		<node id="122015.0" x="33772.274816792575" y="15790.983014418627" >
		</node>
		<node id="122016.0" x="33814.44307533128" y="15817.083431191277" >
		</node>
		<node id="122017.0" x="33856.97818844451" y="15882.032648625085" >
		</node>
		<node id="122018.0" x="33946.645402487135" y="15927.69202864659" >
		</node>
		<node id="122019.0" x="34028.29344631813" y="15832.421730261412" >
		</node>
		<node id="122020.0" x="33919.28091818141" y="15819.505142666865" >
		</node>
		<node id="122021.0" x="33980.6739666122" y="15773.829692439875" >
		</node>
		<node id="122022.0" x="33888.588674809434" y="15731.551387631916" >
		</node>
		<node id="122023.0" x="33954.45842948498" y="15632.799001500942" >
		</node>
		<node id="122024.0" x="34003.698974663275" y="15662.995701565873" >
		</node>
		<node id="123001.0" x="34686.47938363289" y="16127.168300373363" >
		</node>
		<node id="123002.0" x="34290.62008430867" y="15992.014951069257" >
		</node>
		<node id="123003.0" x="34380.206061008736" y="15927.797282375162" >
		</node>
		<node id="123004.0" x="34463.57271933777" y="15901.66492407478" >
		</node>
		<node id="123005.0" x="34554.75788760802" y="15870.154760210076" >
		</node>
		<node id="123006.0" x="34637.018351133214" y="15849.159080593497" >
		</node>
		<node id="123007.0" x="34706.10979871056" y="15829.495900779846" >
		</node>
		<node id="123008.0" x="34373.13354391663" y="15850.21223015606" >
		</node>
		<node id="123009.0" x="34439.77920757537" y="15816.539016765659" >
		</node>
		<node id="123010.0" x="34506.78613004065" y="15798.013155761757" >
		</node>
		<node id="123011.0" x="34567.97986643191" y="15780.89750992274" >
		</node>
		<node id="123012.0" x="34654.11971842428" y="15737.399380435701" >
		</node>
		<node id="123013.0" x="34301.91174646572" y="15807.573518869001" >
		</node>
		<node id="123014.0" x="34394.69461160875" y="15727.835075396113" >
		</node>
		<node id="123015.0" x="34481.81654886447" y="15711.726980175124" >
		</node>
		<node id="123016.0" x="34552.53651680017" y="15701.684442062164" >
		</node>
		<node id="123017.0" x="34198.38396990078" y="15798.296836946043" >
		</node>
		<node id="123018.0" x="34143.66160801519" y="15737.993519437383" >
		</node>
		<node id="123019.0" x="34222.695706749684" y="15712.89089233242" >
		</node>
		<node id="123020.0" x="34253.659043488326" y="15672.982035807916" >
		</node>
		<node id="123021.0" x="34392.84920793853" y="15602.855459946324" >
		</node>
		<node id="123022.0" x="34555.92639686761" y="15625.394034150522" >
		</node>
		<node id="123023.0" x="34249.35461962188" y="15543.913338172017" >
		</node>
		<node id="124001.0" x="35067.13012237963" y="15879.104359946446" >
		</node>
		<node id="124005.0" x="34346.2061872707" y="15359.912958086119" >
		</node>
		<node id="124006.0" x="34399.919413167285" y="15327.679519353318" >
		</node>
		<node id="124008.0" x="35020.77050940576" y="15420.39435504016" >
		</node>
		<node id="124009.0" x="34630.810646480764" y="15545.626373663894" >
		</node>
		<node id="124010.0" x="34801.56572339125" y="15734.753332150634" >
		</node>
		<node id="124011.0" x="35062.24643008073" y="15587.277735148906" >
		</node>
		<node id="124012.0" x="34847.082689038594" y="15346.103557605878" >
		</node>
		<node id="124013.0" x="35346.47974655626" y="15838.349465617677" >
		</node>
		<node id="124014.0" x="35366.06410829467" y="15534.64350805222" >
		</node>
		<node id="124015.0" x="35565.1910042871" y="15816.829891520087" >
		</node>
		<node id="131001.0" x="35532.75883835333" y="15579.732218931313" >
		</node>
		<node id="131002.0" x="35672.752000470646" y="15568.080005908734" >
		</node>
		<node id="131003.0" x="35807.357580355834" y="15562.424081030185" >
		</node>
		<node id="131004.0" x="35954.50739355711" y="15578.373050644761" >
		</node>
		<node id="131005.0" x="35516.95490390516" y="15518.688679981977" >
		</node>
		<node id="131006.0" x="35667.62991709786" y="15506.002532467013" >
		</node>
		<node id="131007.0" x="35807.47621473507" y="15500.664934193366" >
		</node>
		<node id="131008.0" x="35961.317015296896" y="15516.684963124455" >
		</node>
		<node id="131009.0" x="36144.9050750701" y="15537.505818866659" >
		</node>
		<node id="131010.0" x="35502.48852088163" y="15461.123552952195" >
		</node>
		<node id="131011.0" x="35662.20798846532" y="15447.437135849148" >
		</node>
		<node id="131012.0" x="35814.10391373129" y="15442.261620539939" >
		</node>
		<node id="131013.0" x="35973.53896591137" y="15458.418939468684" >
		</node>
		<node id="131014.0" x="35556.90072137595" y="15404.901689540478" >
		</node>
		<node id="131015.0" x="35654.22154103301" y="15384.82881447568" >
		</node>
		<node id="131016.0" x="35678.321818664204" y="15330.497096310719" >
		</node>
		<node id="131017.0" x="35813.15931585932" y="15351.680054215482" >
		</node>
		<node id="131018.0" x="35980.42549891258" y="15397.37969851913" >
		</node>
		<node id="131019.0" x="35400.084516060655" y="15409.063054970233" >
		</node>
		<node id="131020.0" x="35473.26815752452" y="15379.548649670207" >
		</node>
		<node id="131021.0" x="35524.8831761413" y="15344.20428566914" >
		</node>
		<node id="131023.0" x="35585.372260901495" y="15302.007570812595" >
		</node>
		<node id="131024.0" x="35630.36012235738" y="15268.769013874466" >
		</node>
		<node id="131025.0" x="35675.49090470141" y="15241.407309460687" >
		</node>
		<node id="131027.0" x="35716.4038547799" y="15222.75214470143" >
		</node>
		<node id="131028.0" x="35751.24814771081" y="15218.673731765593" >
		</node>
		<node id="131029.0" x="35800.835678550764" y="15201.62915850291" >
		</node>
		<node id="131031.0" x="35846.489806486876" y="15164.601227023988" >
		</node>
		<node id="131032.0" x="35859.94709566189" y="15107.46986932098" >
		</node>
		<node id="131033.0" x="35871.789423648734" y="15245.040869947756" >
		</node>
		<node id="131034.0" x="35912.391328793485" y="15249.117942841724" >
		</node>
		<node id="131035.0" x="35954.975553118275" y="15253.636717016576" >
		</node>
		<node id="131036.0" x="35996.335869644536" y="15266.591949861846" >
		</node>
		<node id="131037.0" x="36038.428642432904" y="15295.006496844813" >
		</node>
		<node id="131044.0" x="35399.24016801745" y="15316.820383718237" >
		</node>
		<node id="131046.0" x="35470.05030625069" y="15289.02098569111" >
		</node>
		<node id="131047.0" x="35526.934814192355" y="15227.401438578498" >
		</node>
		<node id="131048.0" x="35579.13701595564" y="15193.23564516299" >
		</node>
		<node id="131049.0" x="35687.409082578495" y="15149.271798646776" >
		</node>
		<node id="131050.0" x="35626.77360856708" y="15187.328549820813" >
		</node>
		<node id="131051.0" x="35302.28796695138" y="15278.70004150807" >
		</node>
		<node id="131053.0" x="35330.57340428396" y="15186.675742744468" >
		</node>
		<node id="131056.0" x="35478.612727423664" y="15135.688958461978" >
		</node>
		<node id="131059.0" x="35842.51561248419" y="15056.122017437709" >
		</node>
		<node id="131060.0" x="35814.4620799158" y="15005.101425930508" >
		</node>
		<node id="131061.0" x="35945.41882651532" y="15032.111809842987" >
		</node>
		<node id="131062.0" x="35913.70975056873" y="14996.050941695576" >
		</node>
		<node id="131063.0" x="36000.67434185755" y="15041.986227437388" >
		</node>
		<node id="131064.0" x="36063.80014791805" y="15016.472186522442" >
		</node>
		<node id="131065.0" x="36004.9295519999" y="15002.225330649642" >
		</node>
		<node id="131066.0" x="35989.75185720308" y="14970.145078071742" >
		</node>
		<node id="131067.0" x="36030.017133652815" y="14930.19414675911" >
		</node>
		<node id="131068.0" x="35976.073067379184" y="14934.472629704629" >
		</node>
		<node id="131069.0" x="35939.277638610336" y="14896.226577054826" >
		</node>
		<node id="131070.0" x="35932.604477893095" y="14951.936619393062" >
		</node>
		<node id="131071.0" x="35425.43400837283" y="15261.286747722654" >
		</node>
		<node id="131073.0" x="35671.2784674844" y="15086.455440060585" >
		</node>
		<node id="131074.0" x="35350.86301962973" y="15336.387649462325" >
		</node>
		<node id="131075.0" x="35411.798682661145" y="15211.837887430913" >
		</node>
		<node id="131076.0" x="35881.92507831927" y="15163.805036678212" >
		</node>
		<node id="132001.0" x="36144.38089146267" y="15418.862374237156" >
		</node>
		<node id="132002.0" x="35987.508166872896" y="15341.448808097979" >
		</node>
		<node id="132003.0" x="36099.44854951254" y="15362.089192727813" >
		</node>
		<node id="132004.0" x="36169.6335667728" y="15354.544251626707" >
		</node>
		<node id="132005.0" x="36239.51047682064" y="15383.143349712598" >
		</node>
		<node id="132006.0" x="36279.220373382326" y="15404.837236077525" >
		</node>
		<node id="132007.0" x="36348.98046340654" y="15441.311725906446" >
		</node>
		<node id="132008.0" x="36608.50611709198" y="15525.293898302829" >
		</node>
		<node id="132009.0" x="36681.34559479321" y="15549.849353695638" >
		</node>
		<node id="132010.0" x="36713.70222207182" y="15459.038092669682" >
		</node>
		<node id="132011.0" x="36812.16262027237" y="15563.559454794507" >
		</node>
		<node id="132012.0" x="36089.163914704346" y="15290.19868640392" >
		</node>
		<node id="132013.0" x="36193.86988755793" y="15309.050593909575" >
		</node>
		<node id="132014.0" x="36278.391969662975" y="15334.673879529233" >
		</node>
		<node id="132015.0" x="36341.6422996755" y="15368.336184460553" >
		</node>
		<node id="132017.0" x="36488.82169933547" y="15420.501525049214" >
		</node>
		<node id="132018.0" x="36599.364699378144" y="15439.937531356816" >
		</node>
		<node id="132019.0" x="36636.173073765705" y="15455.254905547365" >
		</node>
		<node id="132020.0" x="36675.47363719868" y="15459.081224216148" >
		</node>
		<node id="132021.0" x="36808.222401735606" y="15495.27843543014" >
		</node>
		<node id="132022.0" x="36910.07328664721" y="15504.49368413689" >
		</node>
		<node id="132023.0" x="36084.25643083325" y="15176.624121313216" >
		</node>
		<node id="132024.0" x="36200.97617658484" y="15193.999416831764" >
		</node>
		<node id="132025.0" x="36278.51149247424" y="15298.97153470607" >
		</node>
		<node id="132026.0" x="36293.1620015807" y="15225.819356308668" >
		</node>
		<node id="132028.0" x="36591.55290951405" y="15358.094080633367" >
		</node>
		<node id="132029.0" x="36644.43854652392" y="15348.73348310485" >
		</node>
		<node id="132030.0" x="36672.53828629118" y="15384.60977802996" >
		</node>
		<node id="132031.0" x="36796.97020915663" y="15427.595343777328" >
		</node>
		<node id="132032.0" x="36891.89515837503" y="15427.068295559613" >
		</node>
		<node id="132033.0" x="35961.3672002079" y="15134.652972124633" >
		</node>
		<node id="132034.0" x="36601.174513848615" y="15246.305619253195" >
		</node>
		<node id="132035.0" x="36785.9503768764" y="15372.8308564584" >
		</node>
		<node id="132036.0" x="36486.36465270119" y="15483.991151982686" >
		</node>
		<node id="132037.0" x="36793.594491943135" y="15613.415955844917" >
		</node>
		<node id="132038.0" x="36867.72936123947" y="15633.946870547603" >
		</node>
		<node id="132039.0" x="36533.75364069303" y="15374.906084476272" >
		</node>
		<node id="132040.0" x="36560.53494753747" y="15272.57629198546" >
		</node>
		<node id="132041.0" x="36487.44226032216" y="15152.877296027029" >
		</node>
		<node id="132042.0" x="36347.178244744195" y="15227.56092985347" >
		</node>
		<node id="132043.0" x="36388.68600067124" y="15368.387551160879" >
		</node>
		<node id="132044.0" x="36467.64185274008" y="15276.625688362867" >
		</node>
		<node id="133001.0" x="36139.52634634997" y="15599.317352594575" >
		</node>
		<node id="133002.0" x="36294.41782268649" y="15625.166650574654" >
		</node>
		<node id="133003.0" x="36429.0793994884" y="15667.708564265631" >
		</node>
		<node id="133004.0" x="36578.22288343648" y="15731.453798361006" >
		</node>
		<node id="133005.0" x="36731.02400557487" y="15802.081079532392" >
		</node>
		<node id="133006.0" x="36306.60586936062" y="15564.648125339765" >
		</node>
		<node id="133007.0" x="36447.38198553398" y="15609.12853259698" >
		</node>
		<node id="133008.0" x="36604.73189830349" y="15665.815426340443" >
		</node>
		<node id="133009.0" x="36762.83135405416" y="15728.972077135812" >
		</node>
		<node id="133010.0" x="36153.147273896146" y="15478.685205680435" >
		</node>
		<node id="133011.0" x="36318.034231395344" y="15506.810008839122" >
		</node>
		<node id="133012.0" x="36466.9080107871" y="15552.901193952654" >
		</node>
		<node id="133013.0" x="36626.78031016886" y="15610.424238675507" >
		</node>
		<node id="133014.0" x="36775.32163768355" y="15670.221490620752" >
		</node>
		<node id="134002.0" x="35819.11062946136" y="15674.238625228521" >
		</node>
		<node id="134003.0" x="35472.47066371294" y="15688.28632591141" >
		</node>
		<node id="134006.0" x="35858.93250183342" y="15960.85167747247" >
		</node>
		<node id="135001.0" x="36144.56543540547" y="15838.87976912409" >
		</node>
		<node id="135002.0" x="36167.76426325983" y="15704.095316222054" >
		</node>
		<node id="135003.0" x="36376.99218740279" y="15811.790787305916" >
		</node>
		<node id="135004.0" x="36509.590089212055" y="15906.17774673365" >
		</node>
		<node id="135005.0" x="36606.39199166279" y="15929.015388493426" >
		</node>
		<node id="140001.0" x="35545.782233023085" y="14985.06678086787" >
		</node>
		<node id="140002.0" x="36142.69431503606" y="14835.378250992973" >
		</node>
		<node id="140003.0" x="36609.53032805992" y="14360.310335370363" >
		</node>
		<node id="140004.0" x="35473.685362030636" y="14798.917931457749" >
		</node>
		<node id="140005.0" x="35974.468490686035" y="14562.98251920729" >
		</node>
		<node id="141001.0" x="31646.744205454248" y="15698.127976468182" >
		</node>
		<node id="141002.0" x="31699.020756020094" y="15879.926496508298" >
		</node>
		<node id="141003.0" x="31954.43186893582" y="15455.963989199605" >
		</node>
		<node id="141004.0" x="32274.510772635345" y="15960.8589493545" >
		</node>